@ [ MODPATH Version 4.00 (V4, Release 2, 4-2001) (TREF=   0.000000E+00 ) ]
  4    3    5    1  1.30118E+03  1.75531E+04 -5.00000E+00  0.00000E+00  1.74665E+04  8.33333E+01  1.95833E+04  9.99900E-01    1    1    1   1     1     12  0.00000E+00
  4    3    6    1  1.37481E+03  1.73326E+04 -5.00000E+00  0.00000E+00  3.61989E+04  8.33333E+01  1.97500E+04  9.99900E-01    1    1    1   1     1     12  0.00000E+00
  1    9   38    1  4.17401E+03  1.00332E+03  4.09115E+00  1.00000E+00  1.78560E+05  8.33333E+01  1.99167E+04  9.99900E-01    1    1    1   1     1     11  0.00000E+00
  4    3    5    1  1.30008E+03  1.77228E+04 -5.00000E+00  0.00000E+00  1.37514E+04  2.50000E+02  1.95833E+04  9.99900E-01    1    1    1   1     1     12  0.00000E+00
  4    3    5    1  1.35416E+03  1.76909E+04 -5.00000E+00  0.00000E+00  1.73342E+04  2.50000E+02  1.97500E+04  9.99900E-01    1    1    1   1     1     12  0.00000E+00
  1    9   37    1  4.17279E+03  1.68026E+03  4.15729E+00  1.00000E+00  1.67980E+05  2.50000E+02  1.99167E+04  9.99900E-01    1    1    1   1     1     11  0.00000E+00
  4    3    5    1  1.38465E+03  1.77652E+04 -5.00000E+00  0.00000E+00  1.16546E+04  4.16667E+02  1.95833E+04  9.99900E-01    1    1    1   1     1     12  0.00000E+00
  4    3    5    1  1.43625E+03  1.77269E+04 -5.00000E+00  0.00000E+00  1.51266E+04  4.16667E+02  1.97500E+04  9.99900E-01    1    1    1   1     1     12  0.00000E+00
  1    9   36    1  4.17153E+03  2.33111E+03  4.23743E+00  1.00000E+00  1.54966E+05  4.16667E+02  1.99167E+04  9.99900E-01    1    1    1   1     1     11  0.00000E+00
  4    3    5    1  1.49116E+03  1.77897E+04 -5.00000E+00  0.00000E+00  1.03719E+04  5.83333E+02  1.95833E+04  9.99900E-01    2    1    1   1     1     12  0.00000E+00
  4    4    4    1  1.71744E+03  1.80090E+04 -5.00000E+00  0.00000E+00  1.31545E+04  5.83333E+02  1.97500E+04  9.99900E-01    2    1    1   1     1     12  0.00000E+00
  4    3    7    1  1.37928E+03  1.68550E+04 -5.00000E+00  0.00000E+00  6.75479E+04  5.83333E+02  1.99167E+04  9.99900E-01    2    1    1   1     1     12  0.00000E+00
  4    4    4    1  1.66636E+03  1.80830E+04 -5.00000E+00  0.00000E+00  9.02500E+03  7.50000E+02  1.95833E+04  9.99900E-01    2    1    1   1     1     12  0.00000E+00
  4    4    4    1  1.71008E+03  1.80915E+04 -5.00000E+00  0.00000E+00  1.18266E+04  7.50000E+02  1.97500E+04  9.99900E-01    2    1    1   1     1     12  0.00000E+00
  4    3    5    1  1.35313E+03  1.76678E+04 -5.00000E+00  0.00000E+00  3.87677E+04  7.50000E+02  1.99167E+04  9.99900E-01    2    1    1   1     1     12  0.00000E+00
  4    4    4    1  1.64339E+03  1.81860E+04 -5.00000E+00  0.00000E+00  7.48998E+03  9.16667E+02  1.95833E+04  9.99900E-01    2    1    1   1     1     12  0.00000E+00
  4    4    4    1  1.69359E+03  1.81691E+04 -5.00000E+00  0.00000E+00  1.02444E+04  9.16667E+02  1.97500E+04  9.99900E-01    2    1    1   1     1     12  0.00000E+00
  4    4    4    1  1.76616E+03  1.81368E+04 -5.00000E+00  0.00000E+00  1.53660E+04  9.16667E+02  1.99167E+04  9.99900E-01    2    1    1   1     1     12  0.00000E+00
  4    4    4    1  1.62661E+03  1.82906E+04 -5.00000E+00  0.00000E+00  6.39724E+03  1.08333E+03  1.95833E+04  9.99900E-01    3    1    1   1     1     12  0.00000E+00
  4    4    4    1  1.67796E+03  1.82477E+04 -5.00000E+00  0.00000E+00  8.82864E+03  1.08333E+03  1.97500E+04  9.99900E-01    3    1    1   1     1     12  0.00000E+00
  4    4    4    1  1.77433E+03  1.81605E+04 -5.00000E+00  0.00000E+00  1.40053E+04  1.08333E+03  1.99167E+04  9.99900E-01    3    1    1   1     1     12  0.00000E+00
  4    4    4    1  1.66661E+03  1.83294E+04 -5.00000E+00  0.00000E+00  5.88534E+03  1.25000E+03  1.95833E+04  9.99900E-01    3    1    1   1     1     12  0.00000E+00
  4    4    4    1  1.72045E+03  1.82623E+04 -5.00000E+00  0.00000E+00  8.35709E+03  1.25000E+03  1.97500E+04  9.99900E-01    3    1    1   1     1     12  0.00000E+00
  4    4    4    1  1.80086E+03  1.81686E+04 -5.00000E+00  0.00000E+00  1.36453E+04  1.25000E+03  1.99167E+04  9.99900E-01    3    1    1   1     1     12  0.00000E+00
  4    4    4    1  1.71754E+03  1.83538E+04 -5.00000E+00  0.00000E+00  5.23993E+03  1.41667E+03  1.95833E+04  9.99900E-01    3    1    1   1     1     12  0.00000E+00
  4    4    4    1  1.75902E+03  1.82834E+04 -5.00000E+00  0.00000E+00  7.67826E+03  1.41667E+03  1.97500E+04  9.99900E-01    3    1    1   1     1     12  0.00000E+00
  4    4    4    1  1.82180E+03  1.81852E+04 -5.00000E+00  0.00000E+00  1.28946E+04  1.41667E+03  1.99167E+04  9.99900E-01    3    1    1   1     1     12  0.00000E+00
  4    4    4    1  1.77264E+03  1.83818E+04 -5.00000E+00  0.00000E+00  4.45555E+03  1.58333E+03  1.95833E+04  9.99900E-01    4    1    1   1     1     12  0.00000E+00
  4    4    4    1  1.79403E+03  1.83194E+04 -5.00000E+00  0.00000E+00  6.42666E+03  1.58333E+03  1.97500E+04  9.99900E-01    4    1    1   1     1     12  0.00000E+00
  4    4    4    1  1.83032E+03  1.82262E+04 -5.00000E+00  0.00000E+00  1.06175E+04  1.58333E+03  1.99167E+04  9.99900E-01    4    1    1   1     1     12  0.00000E+00
  4    4    4    1  1.84803E+03  1.83818E+04 -5.00000E+00  0.00000E+00  4.45555E+03  1.75000E+03  1.95833E+04  9.99900E-01    4    1    1   1     1     12  0.00000E+00
  4    4    4    1  1.85101E+03  1.83194E+04 -5.00000E+00  0.00000E+00  6.42666E+03  1.75000E+03  1.97500E+04  9.99900E-01    4    1    1   1     1     12  0.00000E+00
  4    4    4    1  1.86239E+03  1.82262E+04 -5.00000E+00  0.00000E+00  1.06175E+04  1.75000E+03  1.99167E+04  9.99900E-01    4    1    1   1     1     12  0.00000E+00
  4    4    4    1  1.92342E+03  1.83818E+04 -5.00000E+00  0.00000E+00  4.45555E+03  1.91667E+03  1.95833E+04  9.99900E-01    4    1    1   1     1     12  0.00000E+00
  4    4    4    1  1.90800E+03  1.83194E+04 -5.00000E+00  0.00000E+00  6.42666E+03  1.91667E+03  1.97500E+04  9.99900E-01    4    1    1   1     1     12  0.00000E+00
  4    4    4    1  1.89446E+03  1.82262E+04 -5.00000E+00  0.00000E+00  1.06175E+04  1.91667E+03  1.99167E+04  9.99900E-01    4    1    1   1     1     12  0.00000E+00
  4    5    4    1  2.00362E+03  1.83511E+04 -5.00000E+00  0.00000E+00  4.24354E+03  2.08333E+03  1.95833E+04  9.99900E-01    5    1    1   1     1     12  0.00000E+00
  4    4    4    1  1.96756E+03  1.83265E+04 -5.00000E+00  0.00000E+00  6.18716E+03  2.08333E+03  1.97500E+04  9.99900E-01    5    1    1   1     1     12  0.00000E+00
  4    4    4    1  1.92740E+03  1.82304E+04 -5.00000E+00  0.00000E+00  1.03816E+04  2.08333E+03  1.99167E+04  9.99900E-01    5    1    1   1     1     12  0.00000E+00
  4    5    4    1  2.09900E+03  1.83565E+04 -5.00000E+00  0.00000E+00  4.14807E+03  2.25000E+03  1.95833E+04  9.99900E-01    5    1    1   1     1     12  0.00000E+00
  4    5    4    1  2.03722E+03  1.82847E+04 -5.00000E+00  0.00000E+00  5.95561E+03  2.25000E+03  1.97500E+04  9.99900E-01    5    1    1   1     1     12  0.00000E+00
  4    4    4    1  1.96087E+03  1.82376E+04 -5.00000E+00  0.00000E+00  1.00199E+04  2.25000E+03  1.99167E+04  9.99900E-01    5    1    1   1     1     12  0.00000E+00
  4    5    4    1  2.19445E+03  1.83565E+04 -5.00000E+00  0.00000E+00  4.14807E+03  2.41667E+03  1.95833E+04  9.99900E-01    5    1    1   1     1     12  0.00000E+00
  4    5    4    1  2.11471E+03  1.82847E+04 -5.00000E+00  0.00000E+00  5.95561E+03  2.41667E+03  1.97500E+04  9.99900E-01    5    1    1   1     1     12  0.00000E+00
  4    4    4    1  1.99391E+03  1.82452E+04 -5.00000E+00  0.00000E+00  9.69559E+03  2.41667E+03  1.99167E+04  9.99900E-01    5    1    1   1     1     12  0.00000E+00
  4    5    4    1  2.29287E+03  1.83592E+04 -5.00000E+00  0.00000E+00  4.09322E+03  2.58333E+03  1.95833E+04  9.99900E-01    6    1    1   1     1     12  0.00000E+00
  4    5    4    1  2.19460E+03  1.82866E+04 -5.00000E+00  0.00000E+00  5.90322E+03  2.58333E+03  1.97500E+04  9.99900E-01    6    1    1   1     1     12  0.00000E+00
  4    5    4    1  2.04257E+03  1.81885E+04 -5.00000E+00  0.00000E+00  9.71746E+03  2.58333E+03  1.99167E+04  9.99900E-01    6    1    1   1     1     12  0.00000E+00
  4    5    4    1  2.39229E+03  1.83645E+04 -5.00000E+00  0.00000E+00  3.97848E+03  2.75000E+03  1.95833E+04  9.99900E-01    6    1    1   1     1     12  0.00000E+00
  4    5    4    1  2.27551E+03  1.82897E+04 -5.00000E+00  0.00000E+00  5.81378E+03  2.75000E+03  1.97500E+04  9.99900E-01    6    1    1   1     1     12  0.00000E+00
  4    5    4    1  2.09435E+03  1.81901E+04 -5.00000E+00  0.00000E+00  9.63022E+03  2.75000E+03  1.99167E+04  9.99900E-01    6    1    1   1     1     12  0.00000E+00
  4    5    4    1  2.48919E+03  1.83713E+04 -5.00000E+00  0.00000E+00  3.83147E+03  2.91667E+03  1.95833E+04  9.99900E-01    6    1    1   1     1     12  0.00000E+00
  4    5    4    1  2.35479E+03  1.82926E+04 -5.00000E+00  0.00000E+00  5.72401E+03  2.91667E+03  1.97500E+04  9.99900E-01    6    1    1   1     1     12  0.00000E+00
  4    5    4    1  2.14514E+03  1.81914E+04 -5.00000E+00  0.00000E+00  9.55731E+03  2.91667E+03  1.99167E+04  9.99900E-01    6    1    1   1     1     12  0.00000E+00
  4    6    4    1  2.57346E+03  1.83727E+04 -5.00000E+00  0.00000E+00  3.79734E+03  3.08333E+03  1.95833E+04  9.99900E-01    7    1    1   1     1     12  0.00000E+00
  4    5    4    1  2.43164E+03  1.82949E+04 -5.00000E+00  0.00000E+00  5.65333E+03  3.08333E+03  1.97500E+04  9.99900E-01    7    1    1   1     1     12  0.00000E+00
  4    5    4    1  2.19454E+03  1.81921E+04 -5.00000E+00  0.00000E+00  9.51292E+03  3.08333E+03  1.99167E+04  9.99900E-01    7    1    1   1     1     12  0.00000E+00
  4    6    4    1  2.65496E+03  1.83716E+04 -5.00000E+00  0.00000E+00  3.81876E+03  3.25000E+03  1.95833E+04  9.99900E-01    7    1    1   1     1     12  0.00000E+00
  4    6    4    1  2.50501E+03  1.82992E+04 -5.00000E+00  0.00000E+00  5.51139E+03  3.25000E+03  1.97500E+04  9.99900E-01    7    1    1   1     1     12  0.00000E+00
  4    5    4    1  2.24254E+03  1.81923E+04 -5.00000E+00  0.00000E+00  9.49182E+03  3.25000E+03  1.99167E+04  9.99900E-01    7    1    1   1     1     12  0.00000E+00
  4    6    4    1  2.73555E+03  1.83711E+04 -5.00000E+00  0.00000E+00  3.81878E+03  3.41667E+03  1.95833E+04  9.99900E-01    7    1    1   1     1     12  0.00000E+00
  4    6    4    1  2.56914E+03  1.82978E+04 -5.00000E+00  0.00000E+00  5.54164E+03  3.41667E+03  1.97500E+04  9.99900E-01    7    1    1   1     1     12  0.00000E+00
  4    5    4    1  2.28968E+03  1.81922E+04 -5.00000E+00  0.00000E+00  9.47333E+03  3.41667E+03  1.99167E+04  9.99900E-01    7    1    1   1     1     12  0.00000E+00
  4    6    4    1  2.80443E+03  1.83660E+04 -5.00000E+00  0.00000E+00  3.91130E+03  3.58333E+03  1.95833E+04  9.99900E-01    8    1    1   1     1     12  0.00000E+00
  4    6    4    1  2.62432E+03  1.82928E+04 -5.00000E+00  0.00000E+00  5.66238E+03  3.58333E+03  1.97500E+04  9.99900E-01    8    1    1   1     1     12  0.00000E+00
  4    5    4    1  2.32994E+03  1.81901E+04 -5.00000E+00  0.00000E+00  9.55265E+03  3.58333E+03  1.99167E+04  9.99900E-01    8    1    1   1     1     12  0.00000E+00
  4    6    4    1  2.86309E+03  1.83573E+04 -5.00000E+00  0.00000E+00  4.08068E+03  3.75000E+03  1.95833E+04  9.99900E-01    8    1    1   1     1     12  0.00000E+00
  4    6    4    1  2.67156E+03  1.82849E+04 -5.00000E+00  0.00000E+00  5.86386E+03  3.75000E+03  1.97500E+04  9.99900E-01    8    1    1   1     1     12  0.00000E+00
  4    5    4    1  2.36426E+03  1.81862E+04 -5.00000E+00  0.00000E+00  9.72651E+03  3.75000E+03  1.99167E+04  9.99900E-01    8    1    1   1     1     12  0.00000E+00
  4    6    4    1  2.92214E+03  1.83506E+04 -5.00000E+00  0.00000E+00  4.20178E+03  3.91667E+03  1.95833E+04  9.99900E-01    8    1    1   1     1     12  0.00000E+00
  4    6    4    1  2.71959E+03  1.82773E+04 -5.00000E+00  0.00000E+00  6.05092E+03  3.91667E+03  1.97500E+04  9.99900E-01    8    1    1   1     1     12  0.00000E+00
  4    5    4    1  2.39900E+03  1.81824E+04 -5.00000E+00  0.00000E+00  9.89191E+03  3.91667E+03  1.99167E+04  9.99900E-01    8    1    1   1     1     12  0.00000E+00
  4    6    4    1  2.97054E+03  1.83397E+04 -5.00000E+00  0.00000E+00  4.40572E+03  4.08333E+03  1.95833E+04  9.99900E-01    9    1    1   1     1     12  0.00000E+00
  4    6    4    1  2.75940E+03  1.82672E+04 -5.00000E+00  0.00000E+00  6.30935E+03  4.08333E+03  1.97500E+04  9.99900E-01    9    1    1   1     1     12  0.00000E+00
  4    5    4    1  2.42780E+03  1.81770E+04 -5.00000E+00  0.00000E+00  1.01339E+04  4.08333E+03  1.99167E+04  9.99900E-01    9    1    1   1     1     12  0.00000E+00
  4    7    4    1  3.00752E+03  1.83979E+04 -5.00000E+00  0.00000E+00  4.51419E+03  4.25000E+03  1.95833E+04  9.99900E-01    9    1    1   1     1     12  0.00000E+00
  4    6    4    1  2.79191E+03  1.82547E+04 -5.00000E+00  0.00000E+00  6.64555E+03  4.25000E+03  1.97500E+04  9.99900E-01    9    1    1   1     1     12  0.00000E+00
  4    5    4    1  2.45138E+03  1.81705E+04 -5.00000E+00  0.00000E+00  1.04443E+04  4.25000E+03  1.99167E+04  9.99900E-01    9    1    1   1     1     12  0.00000E+00
  4    7    4    1  3.03157E+03  1.83872E+04 -5.00000E+00  0.00000E+00  4.82972E+03  4.41667E+03  1.95833E+04  9.99900E-01    9    1    1   1     1     12  0.00000E+00
  4    6    4    1  2.82544E+03  1.82423E+04 -5.00000E+00  0.00000E+00  6.97987E+03  4.41667E+03  1.97500E+04  9.99900E-01    9    1    1   1     1     12  0.00000E+00
  4    5    4    1  2.47562E+03  1.81640E+04 -5.00000E+00  0.00000E+00  1.07507E+04  4.41667E+03  1.99167E+04  9.99900E-01    9    1    1   1     1     12  0.00000E+00
  4    7    4    1  3.05034E+03  1.83749E+04 -5.00000E+00  0.00000E+00  5.18852E+03  4.58333E+03  1.95833E+04  9.99900E-01   10    1    1   1     1     12  0.00000E+00
  4    6    4    1  2.85365E+03  1.82290E+04 -5.00000E+00  0.00000E+00  7.35442E+03  4.58333E+03  1.97500E+04  9.99900E-01   10    1    1   1     1     12  0.00000E+00
  4    5    4    1  2.49607E+03  1.81567E+04 -5.00000E+00  0.00000E+00  1.11111E+04  4.58333E+03  1.99167E+04  9.99900E-01   10    1    1   1     1     12  0.00000E+00
  4    7    4    1  3.06384E+03  1.83607E+04 -5.00000E+00  0.00000E+00  5.60893E+03  4.75000E+03  1.95833E+04  9.99900E-01   10    1    1   1     1     12  0.00000E+00
  4    6    4    1  2.87663E+03  1.82145E+04 -5.00000E+00  0.00000E+00  7.78060E+03  4.75000E+03  1.97500E+04  9.99900E-01   10    1    1   1     1     12  0.00000E+00
  4    6    4    1  2.51131E+03  1.81500E+04 -5.00000E+00  0.00000E+00  1.14288E+04  4.75000E+03  1.99167E+04  9.99900E-01   10    1    1   1     1     12  0.00000E+00
  4    7    4    1  3.07650E+03  1.83458E+04 -5.00000E+00  0.00000E+00  6.04179E+03  4.91667E+03  1.95833E+04  9.99900E-01   10    1    1   1     1     12  0.00000E+00
  4    6    4    1  2.90036E+03  1.81998E+04 -5.00000E+00  0.00000E+00  8.21411E+03  4.91667E+03  1.97500E+04  9.99900E-01   10    1    1   1     1     12  0.00000E+00
  4    6    4    1  2.52667E+03  1.81417E+04 -5.00000E+00  0.00000E+00  1.18830E+04  4.91667E+03  1.99167E+04  9.99900E-01   10    1    1   1     1     12  0.00000E+00
  4    7    4    1  3.08538E+03  1.83296E+04 -5.00000E+00  0.00000E+00  6.51102E+03  5.08333E+03  1.95833E+04  9.99900E-01   11    1    1   1     1     12  0.00000E+00
  4    6    4    1  2.92075E+03  1.81842E+04 -5.00000E+00  0.00000E+00  8.69185E+03  5.08333E+03  1.97500E+04  9.99900E-01   11    1    1   1     1     12  0.00000E+00
  4    6    4    1  2.54012E+03  1.81332E+04 -5.00000E+00  0.00000E+00  1.23743E+04  5.08333E+03  1.99167E+04  9.99900E-01   11    1    1   1     1     12  0.00000E+00
  4    7    4    1  3.09058E+03  1.83119E+04 -5.00000E+00  0.00000E+00  7.01997E+03  5.25000E+03  1.95833E+04  9.99900E-01   11    1    1   1     1     12  0.00000E+00
  4    6    4    1  2.93788E+03  1.81678E+04 -5.00000E+00  0.00000E+00  9.22271E+03  5.25000E+03  1.97500E+04  9.99900E-01   11    1    1   1     1     12  0.00000E+00
  4    6    4    1  2.55168E+03  1.81243E+04 -5.00000E+00  0.00000E+00  1.29099E+04  5.25000E+03  1.99167E+04  9.99900E-01   11    1    1   1     1     12  0.00000E+00
  4    7    4    1  3.09451E+03  1.82930E+04 -5.00000E+00  0.00000E+00  7.54713E+03  5.41667E+03  1.95833E+04  9.99900E-01   11    1    1   1     1     12  0.00000E+00
  4    6    4    1  2.95555E+03  1.81511E+04 -5.00000E+00  0.00000E+00  9.77370E+03  5.41667E+03  1.97500E+04  9.99900E-01   11    1    1   1     1     12  0.00000E+00
  4    6    4    1  2.56375E+03  1.81155E+04 -5.00000E+00  0.00000E+00  1.34623E+04  5.41667E+03  1.99167E+04  9.99900E-01   11    1    1   1     1     12  0.00000E+00
  4    7    4    1  3.09548E+03  1.82728E+04 -5.00000E+00  0.00000E+00  8.09715E+03  5.58333E+03  1.95833E+04  9.99900E-01   12    1    1   1     1     12  0.00000E+00
  4    6    4    1  2.97110E+03  1.81339E+04 -5.00000E+00  0.00000E+00  1.03669E+04  5.58333E+03  1.97500E+04  9.99900E-01   12    1    1   1     1     12  0.00000E+00
  4    6    4    1  2.57468E+03  1.81065E+04 -5.00000E+00  0.00000E+00  1.40472E+04  5.58333E+03  1.99167E+04  9.99900E-01   12    1    1   1     1     12  0.00000E+00
  4    7    4    1  3.09323E+03  1.82502E+04 -5.00000E+00  0.00000E+00  8.69752E+03  5.75000E+03  1.95833E+04  9.99900E-01   12    1    1   1     1     12  0.00000E+00
  4    6    4    1  2.98699E+03  1.81496E+04 -5.00000E+00  0.00000E+00  1.07573E+04  5.75000E+03  1.97500E+04  9.99900E-01   12    1    1   1     1     12  0.00000E+00
  4    6    4    1  2.58454E+03  1.80974E+04 -5.00000E+00  0.00000E+00  1.46734E+04  5.75000E+03  1.99167E+04  9.99900E-01   12    1    1   1     1     12  0.00000E+00
  4    7    4    1  3.08885E+03  1.82253E+04 -5.00000E+00  0.00000E+00  9.32312E+03  5.91667E+03  1.95833E+04  9.99900E-01   12    1    1   1     1     12  0.00000E+00
  4    6    4    1  2.99884E+03  1.81895E+04 -5.00000E+00  0.00000E+00  1.10538E+04  5.91667E+03  1.97500E+04  9.99900E-01   12    1    1   1     1     12  0.00000E+00
  4    4    4    1  1.91718E+03  1.81332E+04 -5.00000E+00  0.00000E+00  3.48722E+04  5.91667E+03  1.99167E+04  9.99900E-01   12    1    1   1     1     12  0.00000E+00
  4    7    4    1  3.08069E+03  1.81967E+04 -5.00000E+00  0.00000E+00  9.99987E+03  6.08333E+03  1.95833E+04  9.99900E-01   13    1    1   1     1     12  0.00000E+00
  4    7    4    1  3.00183E+03  1.81703E+04 -5.00000E+00  0.00000E+00  1.17081E+04  6.08333E+03  1.97500E+04  9.99900E-01   13    1    1   1     1     12  0.00000E+00
  4    3    5    1  1.38039E+03  1.76742E+04 -5.00000E+00  0.00000E+00  5.87126E+04  6.08333E+03  1.99167E+04  9.99900E-01   13    1    1   1     1     12  0.00000E+00
  4    7    4    1  3.06770E+03  1.81622E+04 -5.00000E+00  0.00000E+00  1.07502E+04  6.25000E+03  1.95833E+04  9.99900E-01   13    1    1   1     1     12  0.00000E+00
  4    5    4    1  2.26135E+03  1.80856E+04 -5.00000E+00  0.00000E+00  2.62435E+04  6.25000E+03  1.97500E+04  9.99900E-01   13    1    1   1     1     12  0.00000E+00
  4    3    5    1  1.34260E+03  1.75174E+04 -5.00000E+00  0.00000E+00  7.32718E+04  6.25000E+03  1.99167E+04  9.99900E-01   13    1    1   1     1     12  0.00000E+00
  4    6    4    1  2.83130E+03  1.80775E+04 -5.00000E+00  0.00000E+00  1.98172E+04  6.41667E+03  1.95833E+04  9.99900E-01   13    1    1   1     1     12  0.00000E+00
  4    5    4    1  2.05213E+03  1.80781E+04 -5.00000E+00  0.00000E+00  3.10889E+04  6.41667E+03  1.97500E+04  9.99900E-01   13    1    1   1     1     12  0.00000E+00
  4    3    6    1  1.39393E+03  1.72703E+04 -5.00000E+00  0.00000E+00  8.22633E+04  6.41667E+03  1.99167E+04  9.99900E-01   13    1    1   1     1     12  0.00000E+00
  4    6    4    1  2.58300E+03  1.80698E+04 -5.00000E+00  0.00000E+00  2.46092E+04  6.58333E+03  1.95833E+04  9.99900E-01   14    1    1   1     1     12  0.00000E+00
  4    4    4    1  1.93919E+03  1.81071E+04 -5.00000E+00  0.00000E+00  3.56470E+04  6.58333E+03  1.97500E+04  9.99900E-01   14    1    1   1     1     12  0.00000E+00
  4    3    6    1  1.39029E+03  1.70476E+04 -5.00000E+00  0.00000E+00  8.83335E+04  6.58333E+03  1.99167E+04  9.99900E-01   14    1    1   1     1     12  0.00000E+00
  4    5    4    1  2.37832E+03  1.80607E+04 -5.00000E+00  0.00000E+00  2.90231E+04  6.75000E+03  1.95833E+04  9.99900E-01   14    1    1   1     1     12  0.00000E+00
  4    4    4    1  1.86840E+03  1.80919E+04 -5.00000E+00  0.00000E+00  4.04840E+04  6.75000E+03  1.97500E+04  9.99900E-01   14    1    1   1     1     12  0.00000E+00
  4    3    7    1  1.38757E+03  1.68008E+04 -5.00000E+00  0.00000E+00  9.47189E+04  6.75000E+03  1.99167E+04  9.99900E-01   14    1    1   1     1     12  0.00000E+00
  4    5    4    1  2.25853E+03  1.80506E+04 -5.00000E+00  0.00000E+00  3.18537E+04  6.91667E+03  1.95833E+04  9.99900E-01   14    1    1   1     1     12  0.00000E+00
  4    4    4    1  1.85333E+03  1.80758E+04 -5.00000E+00  0.00000E+00  4.25715E+04  6.91667E+03  1.97500E+04  9.99900E-01   14    1    1   1     1     12  0.00000E+00
  4    3    8    1  1.38602E+03  1.64999E+04 -5.00000E+00  0.00000E+00  1.00925E+05  6.91667E+03  1.99167E+04  9.99900E-01   14    1    1   1     1     12  0.00000E+00
  4    5    4    1  2.19250E+03  1.80401E+04 -5.00000E+00  0.00000E+00  3.42408E+04  7.08333E+03  1.95833E+04  9.99900E-01   15    1    1   1     1     12  0.00000E+00
  4    4    4    1  1.83854E+03  1.80588E+04 -5.00000E+00  0.00000E+00  4.49654E+04  7.08333E+03  1.97500E+04  9.99900E-01   15    1    1   1     1     12  0.00000E+00
  4    3    9    1  1.40730E+03  1.57130E+04 -5.00000E+00  0.00000E+00  1.16710E+05  7.08333E+03  1.99167E+04  9.99900E-01   15    1    1   1     1     12  0.00000E+00
  4    5    4    1  2.14070E+03  1.80290E+04 -5.00000E+00  0.00000E+00  3.64158E+04  7.25000E+03  1.95833E+04  9.99900E-01   15    1    1   1     1     12  0.00000E+00
  4    4    4    1  1.82734E+03  1.80414E+04 -5.00000E+00  0.00000E+00  4.71543E+04  7.25000E+03  1.97500E+04  9.99900E-01   15    1    1   1     1     12  0.00000E+00
  1    9   33    1  4.17208E+03  3.72003E+03  4.55716E+00  1.00000E+00  1.69290E+05  7.25000E+03  1.99167E+04  9.99900E-01   15    1    1   1     1     11  0.00000E+00
  4    5    4    1  2.08763E+03  1.80176E+04 -5.00000E+00  0.00000E+00  3.86181E+04  7.41667E+03  1.95833E+04  9.99900E-01   15    1    1   1     1     12  0.00000E+00
  4    4    4    1  1.81577E+03  1.80134E+04 -5.00000E+00  0.00000E+00  4.99546E+04  7.41667E+03  1.97500E+04  9.99900E-01   15    1    1   1     1     12  0.00000E+00
  1    9   33    1  4.17204E+03  3.74838E+03  4.55716E+00  1.00000E+00  1.69837E+05  7.41667E+03  1.99167E+04  9.99900E-01   15    1    1   1     1     11  0.00000E+00
  4    5    4    1  2.03728E+03  1.80052E+04 -5.00000E+00  0.00000E+00  4.07966E+04  7.58333E+03  1.95833E+04  9.99900E-01   16    1    1   1     1     12  0.00000E+00
  4    3    5    1  1.49341E+03  1.76453E+04 -5.00000E+00  0.00000E+00  5.30738E+04  7.58333E+03  1.97500E+04  9.99900E-01   16    1    1   1     1     12  0.00000E+00
  1    9   33    1  4.17194E+03  3.78119E+03  4.55716E+00  1.00000E+00  1.70222E+05  7.58333E+03  1.99167E+04  9.99900E-01   16    1    1   1     1     11  0.00000E+00
  4    4    5    1  1.98207E+03  1.79130E+04 -5.00000E+00  0.00000E+00  4.72871E+04  7.75000E+03  1.95833E+04  9.99900E-01   16    1    1   1     1     12  0.00000E+00
  4    3    5    1  1.48453E+03  1.76192E+04 -5.00000E+00  0.00000E+00  5.50612E+04  7.75000E+03  1.97500E+04  9.99900E-01   16    1    1   1     1     12  0.00000E+00
  1    9   33    1  4.17188E+03  3.81150E+03  4.55716E+00  1.00000E+00  1.70643E+05  7.75000E+03  1.99167E+04  9.99900E-01   16    1    1   1     1     11  0.00000E+00
  4    4    5    1  1.92615E+03  1.78191E+04 -5.00000E+00  0.00000E+00  4.98154E+04  7.91667E+03  1.95833E+04  9.99900E-01   16    1    1   1     1     12  0.00000E+00
  4    3    5    1  1.47957E+03  1.75929E+04 -5.00000E+00  0.00000E+00  5.70413E+04  7.91667E+03  1.97500E+04  9.99900E-01   16    1    1   1     1     12  0.00000E+00
  1    9   33    1  4.17182E+03  3.84408E+03  4.55716E+00  1.00000E+00  1.70952E+05  7.91667E+03  1.99167E+04  9.99900E-01   16    1    1   1     1     11  0.00000E+00
  4    4    5    1  1.87508E+03  1.77214E+04 -5.00000E+00  0.00000E+00  5.23105E+04  8.08333E+03  1.95833E+04  9.99900E-01   17    1    1   1     1     12  0.00000E+00
  4    3    5    1  1.47385E+03  1.75649E+04 -5.00000E+00  0.00000E+00  5.91410E+04  8.08333E+03  1.97500E+04  9.99900E-01   17    1    1   1     1     12  0.00000E+00
  1    9   33    1  4.17180E+03  3.87472E+03  4.55716E+00  1.00000E+00  1.71300E+05  8.08333E+03  1.99167E+04  9.99900E-01   17    1    1   1     1     11  0.00000E+00
  4    4    5    1  1.82395E+03  1.76171E+04 -5.00000E+00  0.00000E+00  5.48718E+04  8.25000E+03  1.95833E+04  9.99900E-01   17    1    1   1     1     12  0.00000E+00
  4    3    5    1  1.46478E+03  1.75280E+04 -5.00000E+00  0.00000E+00  6.16550E+04  8.25000E+03  1.97500E+04  9.99900E-01   17    1    1   1     1     12  0.00000E+00
  1    9   33    1  4.17181E+03  3.90559E+03  4.55716E+00  1.00000E+00  1.71599E+05  8.25000E+03  1.99167E+04  9.99900E-01   17    1    1   1     1     11  0.00000E+00
  4    4    5    1  1.77097E+03  1.75047E+04 -5.00000E+00  0.00000E+00  5.75696E+04  8.41667E+03  1.95833E+04  9.99900E-01   17    1    1   1     1     12  0.00000E+00
  4    3    6    1  1.47324E+03  1.74678E+04 -5.00000E+00  0.00000E+00  6.55347E+04  8.41667E+03  1.97500E+04  9.99900E-01   17    1    1   1     1     12  0.00000E+00
  1    9   33    1  4.17190E+03  3.93538E+03  4.55716E+00  1.00000E+00  1.71909E+05  8.41667E+03  1.99167E+04  9.99900E-01   17    1    1   1     1     11  0.00000E+00
  4    4    6    1  1.69036E+03  1.73480E+04 -5.00000E+00  0.00000E+00  6.21907E+04  8.58333E+03  1.95833E+04  9.99900E-01   18    1    1   1     1     12  0.00000E+00
  4    3    6    1  1.46678E+03  1.73241E+04 -5.00000E+00  0.00000E+00  6.84491E+04  8.58333E+03  1.97500E+04  9.99900E-01   18    1    1   1     1     12  0.00000E+00
  1    9   33    1  4.17205E+03  3.96489E+03  4.55716E+00  1.00000E+00  1.72203E+05  8.58333E+03  1.99167E+04  9.99900E-01   18    1    1   1     1     11  0.00000E+00
  4    4    6    1  1.63486E+03  1.71910E+04 -5.00000E+00  0.00000E+00  6.51421E+04  8.75000E+03  1.95833E+04  9.99900E-01   18    1    1   1     1     12  0.00000E+00
  4    3    6    1  1.46039E+03  1.71721E+04 -5.00000E+00  0.00000E+00  7.14801E+04  8.75000E+03  1.97500E+04  9.99900E-01   18    1    1   1     1     12  0.00000E+00
  1    9   33    1  4.17233E+03  3.99362E+03  4.55716E+00  1.00000E+00  1.72511E+05  8.75000E+03  1.99167E+04  9.99900E-01   18    1    1   1     1     11  0.00000E+00
  4    4    6    1  1.57945E+03  1.70229E+04 -5.00000E+00  0.00000E+00  6.82133E+04  8.91667E+03  1.95833E+04  9.99900E-01   18    1    1   1     1     12  0.00000E+00
  4    3    6    1  1.45408E+03  1.70110E+04 -5.00000E+00  0.00000E+00  7.46210E+04  8.91667E+03  1.97500E+04  9.99900E-01   18    1    1   1     1     12  0.00000E+00
  1    9   32    1  4.17234E+03  4.02116E+03  4.69088E+00  1.00000E+00  1.72825E+05  8.91667E+03  1.99167E+04  9.99900E-01   18    1    1   1     1     11  0.00000E+00
  4    4    7    1  1.51624E+03  1.68178E+04 -5.00000E+00  0.00000E+00  6.99973E+04  9.08333E+03  1.95833E+04  9.99900E-01   19    1    1   1     1     12  0.00000E+00
  4    3    7    1  1.44668E+03  1.68125E+04 -5.00000E+00  0.00000E+00  7.86787E+04  9.08333E+03  1.97500E+04  9.99900E-01   19    1    1   1     1     12  0.00000E+00
  1    9   32    1  4.17218E+03  4.04795E+03  4.69088E+00  1.00000E+00  1.73145E+05  9.08333E+03  1.99167E+04  9.99900E-01   19    1    1   1     1     11  0.00000E+00
  4    3    7    1  1.49122E+03  1.65880E+04 -5.00000E+00  0.00000E+00  7.12750E+04  9.25000E+03  1.95833E+04  9.99900E-01   19    1    1   1     1     12  0.00000E+00
  4    3    7    1  1.43963E+03  1.65965E+04 -5.00000E+00  0.00000E+00  8.24375E+04  9.25000E+03  1.97500E+04  9.99900E-01   19    1    1   1     1     12  0.00000E+00
  1    9   32    1  4.17244E+03  4.06997E+03  4.69088E+00  1.00000E+00  1.73199E+05  9.25000E+03  1.99167E+04  9.99900E-01   19    1    1   1     1     11  0.00000E+00
  4    3    8    1  1.47648E+03  1.62568E+04 -5.00000E+00  0.00000E+00  7.68550E+04  9.41667E+03  1.95833E+04  9.99900E-01   19    1    1   1     1     12  0.00000E+00
  4    3    8    1  1.43512E+03  1.63408E+04 -5.00000E+00  0.00000E+00  8.71414E+04  9.41667E+03  1.97500E+04  9.99900E-01   19    1    1   1     1     12  0.00000E+00
  1    9   32    1  4.17270E+03  4.09272E+03  4.69088E+00  1.00000E+00  1.73213E+05  9.41667E+03  1.99167E+04  9.99900E-01   19    1    1   1     1     11  0.00000E+00
  4    3    9    1  1.46415E+03  1.58280E+04 -5.00000E+00  0.00000E+00  8.35379E+04  9.58333E+03  1.95833E+04  9.99900E-01   20    1    1   1     1     12  0.00000E+00
  4    3    9    1  1.43441E+03  1.59163E+04 -5.00000E+00  0.00000E+00  9.45778E+04  9.58333E+03  1.97500E+04  9.99900E-01   20    1    1   1     1     12  0.00000E+00
  1    9   32    1  4.17306E+03  4.11522E+03  4.69088E+00  1.00000E+00  1.73749E+05  9.58333E+03  1.99167E+04  9.99900E-01   20    1    1   1     1     11  0.00000E+00
  4    3   10    1  1.43051E+03  1.53734E+04 -5.00000E+00  0.00000E+00  9.12283E+04  9.75000E+03  1.95833E+04  9.99900E-01   20    1    1   1     1     12  0.00000E+00
  1    9   31    1  4.16659E+03  4.77022E+03  4.83958E+00  1.00000E+00  1.47030E+05  9.75000E+03  1.97500E+04  9.99900E-01   20    1    1   1     1     11  0.00000E+00
  1    9   32    1  4.17335E+03  4.13927E+03  4.69088E+00  1.00000E+00  1.74378E+05  9.75000E+03  1.99167E+04  9.99900E-01   20    1    1   1     1     11  0.00000E+00
  1    9   30    1  4.15725E+03  5.13106E+03  5.00492E+00  1.00000E+00  1.32983E+05  9.91667E+03  1.95833E+04  9.99900E-01   20    1    1   1     1     11  0.00000E+00