MODPATH Version 4.00 (V4, Release 2, 4-2001)                                    

 FILE UNIT NUMBER  70 HAS BEEN CONNECTED TO <MVTEST.MP>
 FILE UNIT NUMBER   3 HAS BEEN CONNECTED TO <MVTEST.DIS>
 FILE UNIT NUMBER   1 HAS BEEN CONNECTED TO <MVTEST.HED>
 FILE UNIT NUMBER   2 HAS BEEN CONNECTED TO <MVTEST.BUD>


 DISCRETIZATION INPUT DATA READ FROM UNIT  3
    3 LAYERS        40 ROWS        25 COLUMNS
   1 STRESS PERIOD(S) IN SIMULATION
 MODEL TIME UNIT IS DAYS
 MODEL LENGTH UNIT IS FEET
 Confining bed flag for each layer:
   0   1   0
           1           1
 MAXIMUM NUMBER OF PARTICLES IS   500000
 4541334 ELEMENTS OUT OF 15000000 USED IN THE "A" ARRAY

                     DELR =   500.0000    

                     DELC =   500.0000    

 TOP ELEVATION OF LAYER 1 =   50.00000    

   MODEL LAYER BOTTOM EL. =  -5.000000     FOR LAYER   1

   MODEL LAYER BOTTOM EL. =  -50.00000     FOR LAYER   2

 BOT. EL. OF QUASI-3D BED =  -51.00000     FOR LAYER   2

   MODEL LAYER BOTTOM EL. =  -200.0000     FOR LAYER   3


 STRESS PERIOD     LENGTH       TIME STEPS     MULTIPLIER FOR DELT    SS FLAG
 ----------------------------------------------------------------------------
        1         1.000000          1                    1.000         SS

 STEADY-STATE SIMULATION



  
   25 COLUMNS   40 ROWS    3 LAYERS    1 CONFINING LAYERS
 IGRID (GRID TYPE CODE) IS 0
  
LAYCON (LAYER TYPE CODES):
  1  0  0



           IBOUND                   FOR LAYER   1
 READING ON UNIT  70 WITH FORMAT: (20I4)              

                1           2           3           4           5           6           7           8           9          10
               11          12          13          14          15          16          17          18          19          20
               21          22          23          24          25
 ............................................................................................................................
0  1            1           1           1           1           1           1           1           1           1           1
                1           1           1           1           1           1           1           1           1           1
                1           1           1           1           1
0  2            1           1           1           1           1           1           1           1           1           1
                1           1           1           1           1           1           1           1           1           1
                1           1           1           1           1
0  3            1           1           1           1           1           1           1           1           1           1
                1           1           1           1           1           1           1           1           1           1
                1           1           1           1           1
0  4            1           1           1          -4          -4          -4          -4           1           1           1
                1           1           1           1           1           1           1           1           1           1
                1           1           1           1           1
0  5            1           1          -4          -4          -4          -4          -4           1           1           1
                1           1           1           1           1           1           1           1           1           1
                1           1           1           1           1
0  6            1           1          -4          -4          -4          -4          -4           1           1           1
                1           1           1           1           1           1           1           1           1           1
                1           1           1           1           1
0  7            1           1          -4          -4          -4          -4          -4           1           1           1
                1           1           1           1           1           1           1           1           1           1
                1           1           1           1           1
0  8            1           1          -4          -4          -4          -4          -4           1           1           1
                1           1           1           1           1           1           1           1           1           1
                1           1           1           1           1
0  9            1           1          -4          -4          -4          -4          -4           1           1           1
                1           1           1           1           1           1           1           1           1           1
                1           1           1           1           1
0 10            1           1          -4          -4          -4          -4          -4          -4           1           1
                1           1           1           1           1           1           1           1           1           1
                1           1           1           1           1
0 11            1           1           1          -4          -4          -4          -4          -4           1           1
                1           1           1           1           1           1           1           1           1           1
                1           1           1           1           1
0 12            1           1           1          -4          -4          -4          -4          -4          -4           1
                1           1           1           1           1           1           1           1           1           1
                1           1           1           1           1
0 13            1           1           1           1          -4          -4          -4          -4          -4           1
                1           1           1           1           1           1           1           1           1           1
                1           1           1           1           1
0 14            1           1           1           1          -4          -4          -4          -4          -4           1
                1           1           1           1           1           1           1           1           1           1
                1           1           1           1           1
0 15            1           1           1           1          -4          -4          -4          -4          -4           1
                1           1           1           1           1           1           1           1           1           1
                1           1           1           1           1
0 16            1           1           1           1           1          -4          -4          -4          -4           1
                1           1           1           1           1           1           1           1           1           1
                1           1           1           1           1
0 17            1           1           1           1           1           1           1           1           1           1
                1           1           1           1           1           1           1           1           1           1
                1           1           1           1           1
0 18            1           1           1           1           1           1           1           1           1           1
                1           1           1           1           1           1           1           1           1           1
                1           1           1           1           1
0 19            1           1           1           1           1           1           1           1           1           1
                1           1           1           1           1           1           1           1           1           1
                1           1           1           1           1
0 20            1           1           1           1           1           1           1           1           1           1
                1           1           1           1           1           1           1           1           1           1
                1           1           1           1           1
0 21            1           1           1           1           1           1           1           1           1           1
                1           1           1           1           1           1           1           1           1           1
                1           1           1           1           1
0 22            1           1           1           1           1           1           1           1           1           1
                1           1           1           1           1           1           1           1           1           1
                1           1           1           1           1
0 23            1           1           1           1           1           1           1           1           1           1
                1           1           1           1           1           1           1           1           1           1
                1           1           1           1           1
0 24            1           1           1           1           1           1           1           1           1           1
                1           1           1           1           1           1           1           1           1           1
                1           1           1           1           1
0 25            1           1           1           1           1           1           1           1           1           1
                1           1           1           1           1           1           1           1           1           1
                1           1           1           1           1
0 26            1           1           1           1           1           1           1           1           1           1
                1           1           1           1           1           1           1           1           1           1
                1           1           1           1           1
0 27            1           1           1           1           1           1           1           1           1           1
                1           1           1           1           1           1           1           1           1           1
                1           1           1           1           1
0 28            1           1           1           1           1           1           1           1           1           1
                1           1           1           1           1           1           1           1           1           1
                1           1           1           1           1
0 29            1           1           1           1           1           1           1           1           1           1
                1           1           1           1           1           1           1           1           1           1
                1           1           1           1           1
0 30            1           1           1           1           1           1           1           1           1           1
                1           1           1           1           1           1           1           1           1           1
                1           1           1           1           1
0 31            1           1           1           1           1           1           1           1           1           1
                1           1           1           1           1           1           1           1           1           1
                1           1           1           1           1
0 32            1           1           1           1           1           1           1           1           1           1
                1           1           1           1           1           1           1           1           1           1
                1           1           1           1           1
0 33            1           1           1           1           1           1           1           1           1           1
                1           1           1           1           1           1           1           1           1           1
                1           1           1           1           1
0 34            1           1           1           1           1           1           1           1           1           1
                1           1           1           1           1           1           1           1           1           1
                1           1           1           1           1
0 35            1           1           1           1           1           1           1           1           1           1
                1           1           1           1           1           1           1           1           1           1
                1           1           1           1           1
0 36            1           1           1           1           1           1           1           1           1           1
                1           1           1           1           1           1           1           1           1           1
                1           1           1           1           1
0 37            1           1           1           1           1           1           1           1           1           1
                1           1           1           1           1           1           1           1           1           1
                1           1           1           1           1
0 38            1           1           1           1           1           1           1           1           1           1
                1           1           1           1           1           1           1           1           1           1
                1           1           1           1           1
0 39            1           1           1           1           1           1           1           1           1           1
                1           1           1           1           1           1           1           1           1           1
                1           1           1           1           1
0 40            1           1           1           1           1           1           1           1           1           1
                1           1           1           1           1           1           1           1           1           1
                1           1           1           1           1

 IBOUND                   =              1 FOR LAYER   2



           IBOUND                   FOR LAYER   3
 READING ON UNIT  70 WITH FORMAT: (20I4)              

                1           2           3           4           5           6           7           8           9          10
               11          12          13          14          15          16          17          18          19          20
               21          22          23          24          25
 ............................................................................................................................
0  1            1           1           1           1           1           1           1           1           1           1
                1           1           1           1           1           1           1           1           1           1
                1           1           1           1           1
0  2            1           1           1           1           1           1           1           1           1           1
                1           1           1           1           1           1           1           1           1           1
                1           1           1           1           1
0  3            1           1           1           1           1           1           1           1           1           1
                1           1           1           1           1           1           1           1           1           1
                1           1           1           1           1
0  4            1           1           1           1           1           1           1           1           1           1
                1           1           1           1           1           1           1           1           1           1
                1           1           1           1           1
0  5            1           1           1           1           1           1           1           1           1           1
                1           1           1           1           1           1           1           1           1           1
                1           1           1           1           1
0  6            1           1           1           1           1           1           1           1           1           1
                1           1           1           1           2           1           1           1           1           1
                1           1           1           1           1
0  7            1           1           1           1           1           1           1           1           1           1
                1           1           1           1           1           1           1           1           1           1
                1           1           1           1           1
0  8            1           1           1           1           1           1           1           1           1           1
                1           1           1           1           1           1           1           1           1           1
                1           1           1           1           1
0  9            1           1           1           1           1           1           1           1           1           1
                1           1           1           1           1           1           1           1           1           1
                1           1           1           1           1
0 10            1           1           1           1           1           1           1           1           1           1
                1           1           1           1           1           1           1           1           1           1
                1           1           1           1           1
0 11            1           1           1           1           1           1           1           1           1           1
                1           1           1           1           1           1           1           1           1           1
                1           1           1           1           1
0 12            1           1           1           1           1           1           1           1           1           1
                1           1           1           1           1           1           1           1           1           1
                1           1           1           1           1
0 13            1           1           1           1           1           1           1           1           1           1
                1           1           1           1           1           1           1           1           1           1
                1           1           1           1           1
0 14            1           1           1           1           1           1           1           1           1           1
                1           1           1           1           1           1           1           1           1           1
                1           1           1           1           1
0 15            1           1           1           1           1           1           1           1           1           1
                1           1           1           1           1           1           1           1           1           1
                1           1           1           1           1
0 16            1           1           1           1           1           1           1           1           1           1
                1           1           1           1           1           1           1           1           1           1
                1           1           1           1           1
0 17            1           1           1           1           1           1           1           1           1           1
                1           1           1           1           1           1           1           1           1           1
                1           1           1           1           1
0 18            1           1           1           1           1           1           1           1           1           1
                1           1           1           1           1           1           1           1           1           1
                1           1           1           1           1
0 19            1           1           1           1           1           1           1           1           1           1
                1           1           1           1           1           1           1           1           1           1
                1           1           1           1           1
0 20            1           1           1           1           1           1           1           1           1           1
                1           1           1           1           1           1           1           1           1           1
                1           1           1           1           1
0 21            1           1           1           1           1           1           1           1           1           1
                1           1           1           1           1           1           1           1           1           1
                1           1           1           1           1
0 22            1           1           1           1           1           1           1           1           1           1
                1           1           1           1           1           1           1           1           1           1
                1           1           1           1           1
0 23            1           1           1           1           1           1           1           1           1           1
                1           1           1           1           1           1           1           1           1           1
                1           1           1           1           1
0 24            1           1           1           1           1           1           1           1           1           1
                1           1           1           1           1           1           1           1           1           1
                1           1           1           1           1
0 25            1           1           1           1           1           1           1           1           1           1
                1           1           1           1           1           1           1           1           1           1
                1           1           1           1           1
0 26            1           1           1           1           1           1           1           1           1           1
                1           1           1           1           1           1           1           1           1           1
                1           1           1           1           1
0 27            1           1           1           1           1           1           1           1           1           1
                1           1           1           1           1           1           1           1           1           1
                1           1           1           1           1
0 28            1           1           1           1           1           1           1           1           1           1
                1           1           1           1           1           1           1           1           1           1
                1           1           1           1           1
0 29            1           1           1           1           1           1           1           1           1           1
                1           1           1           1           1           1           1           1           1           1
                1           1           1           1           1
0 30            1           1           1           1           1           1           1           1           1           1
                1           1           1           1           1           1           1           1           1           1
                1           1           1           1           1
0 31            1           1           1           1           1           1           1           1           1           1
                1           1           1           1           1           1           1           1           1           1
                1           1           1           1           1
0 32            1           1           1           1           1           1           1           1           1           1
                1           1           1           1           1           1           1           1           1           1
                1           1           1           1           1
0 33            1           1           1           1           1           5           1           1           1           1
                1           1           1           1           1           1           1           1           1           1
                1           1           1           1           1
0 34            1           1           1           1           1           1           1           1           1           1
                1           1           1           1           1           1           1           1           1           1
                1           1           1           1           1
0 35            1           1           1           1           1           1           1           1           1           1
                1           1           1           1           1           3           1           1           1           1
                1           1           1           1           1
0 36            1           1           1           1           1           1           1           1           1           1
                1           1           1           1           1           1           1           1           1           1
                1           1           1           1           1
0 37            1           1           1           1           1           1           1           1           1           1
                1           1           1           1           1           1           1           1           1           1
                1           1           1           1           1
0 38            1           1           1           1           1           1           1           1           1           1
                1           1           1           1           1           1           1           1           1           1
                1           1           1           1           1
0 39            1           1           1           1           1           1           1           1           1           1
                1           1           1           1           1           1           1           1           1           1
                1           1           1           1           1
0 40            1           1           1           1           1           1           1           1           1           1
                1           1           1           1           1           1           1           1           1           1
                1           1           1           1           1

 POROSITY                 =  0.3000000     FOR LAYER   1

 POROSITY                 =  0.3000000     FOR LAYER   2

 CONFINING BED POROSITY   =  0.3000000     FOR LAYER   2

 POROSITY                 =  0.3000000     FOR LAYER   3
 
 ---------------
 HEADS WERE READ FOR LAYER   1, STRESS PERIOD   1 TIME STEP    1
 HEADS WERE READ FOR LAYER   2, STRESS PERIOD   1 TIME STEP    1
 HEADS WERE READ FOR LAYER   3, STRESS PERIOD   1 TIME STEP    1
HEADS HAVE BEEN READ
 READING FLOW PACKAGE BUDGET DATA FOR STRESS PERIOD    1 , TIME STEP    1 ...
  FLOW RATES BETWEEN CELLS HAVE BEEN READ
 
     33 CELLS HAD ERRORS >   0.1000
   MAXIMUM ERROR =   -0.2476% IN ROW   40 COL   10 LAYER    2
 CELL-BY-CELL ERROR SUMMARY:  ROW  COLUMN  LAYER  ERROR(%)  ERROR(ABSOLUTE)
   10   25    1  -0.1036   -0.16079E+01
   11   25    1  -0.1299   -0.24158E+01
   12   24    1  -0.1143   -0.21727E+01
   13   24    1  -0.1135   -0.20609E+01
   22    9    1   0.1236    0.42008E+01
   23    8    1   0.1058    0.32978E+01
   24    8    1   0.1582    0.45786E+01
   25    8    1   0.1700    0.45025E+01
   26    8    1   0.1768    0.43258E+01
   27    8    1   0.1819    0.41590E+01
   28    8    1   0.1861    0.40144E+01
   29    8    1   0.1899    0.38970E+01
   30    8    1   0.1936    0.38046E+01
   31    8    1   0.1973    0.37324E+01
   32    8    1   0.2010    0.36753E+01
   33    8    1   0.2046    0.36309E+01
   34    8    1   0.2081    0.35964E+01
   35    8    1   0.2116    0.35713E+01
   36    8    1   0.2154    0.35592E+01
   37    8    1   0.2198    0.35615E+01
   38    8    1   0.2230    0.35475E+01
   39    8    1   0.2202    0.34370E+01
   40    8    1   0.2181    0.33354E+01
   13    3    2   0.1041    0.96828E+00
   13    4    2  -0.1214   -0.11234E+01
   14    5    2   0.1372    0.15112E+00
   39    9    2  -0.1043   -0.37292E+02
   40    8    2  -0.1122   -0.45491E+01
   40    9    2  -0.1172   -0.42378E+02
   40   10    2  -0.2476   -0.16092E+02