BEGIN Options
END Options

BEGIN Timing
  TDIS6  ps1.tdis
END Timing

BEGIN Models
  GWF6  ps1.nam  ps1
END Models

BEGIN Exchanges
END Exchanges

BEGIN SolutionGroup 1
  MXITER  1
  IMS6  ps1.ims  ps1
END SolutionGroup
