BEGIN OPTIONS
PRINT_INPUT
PRINT_FLOWS
END OPTIONS
BEGIN DIMENSIONS
MAXMVR 1
MAXPACKAGES 2
END DIMENSIONS
BEGIN PACKAGES
SFR-1
LAK-1
END PACKAGES
BEGIN PERIOD 3
SFR-1 18 LAK-1 1 FACTOR 0.057
END PERIOD 3