BEGIN Options
  BOUNDNAMES
  PRINT_INPUT
  PRINT_STAGE
  PRINT_FLOWS
  UNIT_CONVERSION    128390.00    
  MOVER
  OBS6 FILEIN sfr.obs
END Options

BEGIN Dimensions
  NREACHES  18
END Dimensions

BEGIN PACKAGEDATA
#rno    cellid   rlen  rwid   rgrd  rbtp rbth  rbhk  man ncon ustrf ndv
   1    1 23  9 500.0 100.0 0.0002  1.31  1.0   2.0 0.03    1   1.0   0  river
   2    1 24  9 500.0 100.0 0.0002  1.21  1.0   2.0 0.03    2   1.0   0  river
   3    1 25  9 500.0 100.0 0.0002  1.11  1.0   2.0 0.03    2   1.0   0  river
   4    1 26  9 500.0 100.0 0.0002  1.01  1.0   2.0 0.03    2   1.0   0  river
   5    1 27  9 500.0 100.0 0.0002  0.91  1.0   2.0 0.03    2   1.0   0  river
   6    1 28  9 500.0 100.0 0.0002  0.81  1.0   2.0 0.03    2   1.0   0  river
   7    1 29  9 500.0 100.0 0.0002  0.71  1.0   2.0 0.03    2   1.0   0  river
   8    1 30  9 500.0 100.0 0.0002  0.61  1.0   2.0 0.03    2   1.0   0  river
   9    1 31  9 500.0 100.0 0.0002  0.51  1.0   2.0 0.03    2   1.0   0  river
  10    1 32  9 500.0 100.0 0.0002  0.41  1.0   2.0 0.03    2   1.0   0  river
  11    1 33  9 500.0 100.0 0.0002  0.31  1.0   2.0 0.03    2   1.0   0  river
  12    1 34  9 500.0 100.0 0.0002  0.21  1.0   2.0 0.03    2   1.0   0  river
  13    1 35  9 500.0 100.0 0.0002  0.11  1.0   2.0 0.03    2   1.0   0  river
  14    1 36  9 500.0 100.0 0.0002  0.01  1.0   2.0 0.03    2   1.0   0  river
  15    1 37  9 500.0 100.0 0.0002 -0.09  1.0   2.0 0.03    2   1.0   0  river
  16    1 38  9 500.0 100.0 0.0002 -0.19  1.0   2.0 0.03    2   1.0   0  river
  17    1 39  9 500.0 100.0 0.0002 -0.29  1.0   2.0 0.03    2   1.0   0  river
  18    1 40  9 500.0 100.0 0.0002 -0.39  1.0   2.0 0.03    1   1.0   0  river
END PACKAGEDATA

BEGIN CONNECTIONDATA
   1     -2
   2  1  -3
   3  2  -4
   4  3  -5
   5  4  -6
   6  5  -7
   7  6  -8
   8  7  -9
   9  8 -10
  10  9 -11
  11 10 -12
  12 11 -13
  13 12 -14
  14 13 -15
  15 14 -16
  16 15 -17
  17 16 -18
  18 17
END CONNECTIONDATA

BEGIN PERIOD 1
  1 RUNOFF 35733.805
  2 RUNOFF 35733.805
  3 RUNOFF 35733.805
  4 RUNOFF 35733.805
  5 RUNOFF 35733.805
  6 RUNOFF 35733.805
  7 RUNOFF 35733.805
  8 RUNOFF 35733.805
  9 RUNOFF 35733.805
 10 RUNOFF 35733.805
 11 RUNOFF 35733.805
 12 RUNOFF 35733.805
 13 RUNOFF 35733.805
 14 RUNOFF 35733.805
 15 RUNOFF 35733.805
 16 RUNOFF 35733.805
 17 RUNOFF 35733.805
 18 RUNOFF 35733.805
END PERIOD