BEGIN options
  READASARRAYS
END options

BEGIN period  1
  recharge
    INTERNAL  FACTOR  1.0
           0.00366205       0.00368760       0.00363905       0.00363759       0.00361496       0.00363540       0.00363540       0.00366898       0.00365110       0.00362700       0.00352371       0.00347736       0.00336932       0.00343830       0.00354963       0.00356240       0.00371607       0.00368942       0.00366351       0.00357371
         0.00352188       0.00348648       0.00358503       0.00372300       0.00368869       0.00355620       0.00357116       0.00363832       0.00366460       0.00354890       0.00348794       0.00346677       0.00345217       0.00347991       0.00348174       0.00360583       0.00356641       0.00359561       0.00361824       0.00364380
         0.00366935       0.00370183       0.00372008       0.00355145       0.00349853       0.00346969       0.00348575       0.00350218       0.00355583       0.00357371       0.00357992       0.00359853       0.00370511       0.00368577       0.00371168       0.00370950       0.00367993       0.00372628       0.00387411       0.00393105
         0.00388214       0.00380403       0.00387301       0.00384637       0.00393032       0.00393287       0.00385878       0.00383907       0.00383724       0.00385623       0.00374745       0.00379308       0.00380330       0.00371278       0.00362372       0.00365365       0.00366570       0.00365730       0.00363321       0.00363029
         0.00372519       0.00376132       0.00372921       0.00371497       0.00358868       0.00361934       0.00357700       0.00358357       0.00366862       0.00361898       0.00365255       0.00354269       0.00356751       0.00364635       0.00377118       0.00362993       0.00363650       0.00362554       0.00369818       0.00357773
         0.00369161       0.00363102       0.00356532       0.00349889       0.00352773       0.00362189       0.00349706       0.00348648       0.00346677       0.00351823       0.00355948       0.00361605       0.00350838       0.00356641       0.00362043       0.00360328       0.00369745       0.00376753       0.00374344       0.00384053
         0.00383396       0.00374782       0.00368066       0.00361459       0.00363577
         0.00357408       0.00368723       0.00362846       0.00355984       0.00359014       0.00366533       0.00367081       0.00370074       0.00370548       0.00357700       0.00343648       0.00334960       0.00342772       0.00346495       0.00354160       0.00356568       0.00369964       0.00372446       0.00364635       0.00354999
         0.00357663       0.00351823       0.00364964       0.00370986       0.00365146       0.00364234       0.00369964       0.00368796       0.00362080       0.00364635       0.00353503       0.00346385       0.00349232       0.00350728       0.00352918       0.00355218       0.00361715       0.00359598       0.00367117       0.00367044
         0.00372446       0.00361751       0.00358649       0.00345765       0.00351422       0.00354415       0.00341494       0.00353904       0.00358831       0.00362591       0.00360620       0.00362700       0.00361094       0.00373651       0.00373942       0.00380367       0.00380221       0.00384089       0.00388944       0.00387374
         0.00379344       0.00387667       0.00387046       0.00381242       0.00383871       0.00387229       0.00377081       0.00372410       0.00380695       0.00376644       0.00358795       0.00376132       0.00377374       0.00362043       0.00368139       0.00357153       0.00363613       0.00366935       0.00358539       0.00366898
         0.00363540       0.00376607       0.00376644       0.00369635       0.00367993       0.00369380       0.00370658       0.00361678       0.00358138       0.00366278       0.00364453       0.00350218       0.00361313       0.00361715       0.00365803       0.00366715       0.00374928       0.00362773       0.00358758       0.00358211
         0.00359123       0.00357919       0.00351093       0.00361569       0.00358868       0.00361934       0.00366205       0.00358576       0.00353174       0.00345436       0.00354306       0.00364854       0.00362226       0.00344086       0.00350436       0.00359634       0.00366387       0.00366205       0.00367154       0.00382411
         0.00373906       0.00369161       0.00362372       0.00360656       0.00357043
         0.00357006       0.00356788       0.00354853       0.00354780       0.00360875       0.00360656       0.00371716       0.00363577       0.00369125       0.00351130       0.00335508       0.00331822       0.00342808       0.00348137       0.00360291       0.00362007       0.00365000       0.00383104       0.00370913       0.00358174
         0.00363759       0.00359780       0.00355546       0.00367190       0.00364416       0.00363686       0.00361751       0.00367190       0.00359963       0.00355546       0.00354890       0.00361094       0.00364964       0.00361423       0.00357663       0.00357444       0.00366205       0.00375293       0.00372848       0.00373431
         0.00368760       0.00368760       0.00362116       0.00360145       0.00353904       0.00348539       0.00349670       0.00360985       0.00364307       0.00364635       0.00361240       0.00355036       0.00357883       0.00363321       0.00369562       0.00372738       0.00383834       0.00371534       0.00384856       0.00388397
         0.00385732       0.00383359       0.00383798       0.00386571       0.00390988       0.00385039       0.00381096       0.00379052       0.00367263       0.00369052       0.00367008       0.00357919       0.00363175       0.00367738       0.00363102       0.00361240       0.00358284       0.00352371       0.00355729       0.00364343
         0.00363650       0.00368796       0.00372884       0.00373176       0.00375987       0.00375621       0.00374381       0.00369380       0.00365183       0.00360729       0.00358904       0.00358248       0.00359598       0.00368212       0.00374235       0.00378907       0.00371570       0.00360109       0.00355145       0.00363613
         0.00353831       0.00349743       0.00364854       0.00360729       0.00374782       0.00365985       0.00366241       0.00364051       0.00359634       0.00366825       0.00364599       0.00370986       0.00364635       0.00360875       0.00359561       0.00357518       0.00362700       0.00357700       0.00360729       0.00372227
         0.00374161       0.00366935       0.00357919       0.00356021       0.00354013
         0.00359343       0.00358978       0.00355255       0.00357590       0.00362591       0.00373797       0.00367445       0.00375950       0.00360803       0.00352152       0.00343575       0.00349196       0.00351240       0.00351751       0.00358722       0.00354013       0.00349232       0.00366095       0.00361058       0.00358284
         0.00360729       0.00364416       0.00363394       0.00360985       0.00369234       0.00364672       0.00360875       0.00363869       0.00365219       0.00363650       0.00361423       0.00364380       0.00372701       0.00375111       0.00362993       0.00357554       0.00373724       0.00380403       0.00380148       0.00377118
         0.00374928       0.00370110       0.00364015       0.00358722       0.00359926       0.00345801       0.00353648       0.00355911       0.00368395       0.00365000       0.00362700       0.00361240       0.00362773       0.00364818       0.00369453       0.00371971       0.00375184       0.00379162       0.00376753       0.00374965
         0.00373395       0.00372337       0.00377264       0.00383177       0.00379673       0.00379855       0.00375001       0.00369234       0.00361934       0.00358320       0.00371278       0.00365365       0.00363431       0.00367555       0.00369781       0.00360985       0.00356678       0.00349816       0.00349451       0.00364416
         0.00362664       0.00369891       0.00376753       0.00375366       0.00382411       0.00377811       0.00369672       0.00363358       0.00363540       0.00352152       0.00365073       0.00369781       0.00365037       0.00368905       0.00366387       0.00369125       0.00366825       0.00362080       0.00353065       0.00359087
         0.00356860       0.00358722       0.00367263       0.00371388       0.00367117       0.00372154       0.00370074       0.00372775       0.00371789       0.00372264       0.00374599       0.00370548       0.00369855       0.00367190       0.00364124       0.00362737       0.00360839       0.00363504       0.00363175       0.00360218
         0.00363832       0.00354707       0.00355583       0.00353320       0.00352736
         0.00349050       0.00349086       0.00352481       0.00354378       0.00361058       0.00363102       0.00361277       0.00373176       0.00357955       0.00357444       0.00356423       0.00358174       0.00358357       0.00361204       0.00356897       0.00350765       0.00346495       0.00349305       0.00355401       0.00362700
         0.00366752       0.00375257       0.00372957       0.00369198       0.00364088       0.00366570       0.00375731       0.00362335       0.00362628       0.00365255       0.00362628       0.00362408       0.00368431       0.00370220       0.00366424       0.00360875       0.00362445       0.00367154       0.00376388       0.00375329
         0.00375220       0.00373760       0.00361898       0.00360401       0.00361533       0.00359343       0.00357992       0.00358685       0.00361058       0.00362153       0.00369015       0.00365876       0.00361496       0.00361313       0.00374381       0.00375585       0.00367774       0.00375512       0.00372957       0.00373249
         0.00377848       0.00377775       0.00373541       0.00374527       0.00374563       0.00377301       0.00384454       0.00366424       0.00357846       0.00362700       0.00362993       0.00362591       0.00360620       0.00362080       0.00361934       0.00359196       0.00355072       0.00354743       0.00363065       0.00365219
         0.00365292       0.00371825       0.00377008       0.00383688       0.00380695       0.00387995       0.00372045       0.00372628       0.00369198       0.00357736       0.00365037       0.00366387       0.00359160       0.00371315       0.00374636       0.00362080       0.00367738       0.00361569       0.00355291       0.00347371
         0.00355802       0.00352590       0.00363138       0.00365183       0.00364051       0.00370329       0.00377921       0.00373651       0.00370001       0.00380768       0.00380439       0.00369307       0.00377556       0.00370074       0.00368796       0.00366752       0.00370074       0.00371205       0.00368175       0.00350327
         0.00360912       0.00351933       0.00359926       0.00355693       0.00350838
         0.00349524       0.00338464       0.00348904       0.00342662       0.00349378       0.00355693       0.00362372       0.00366278       0.00362153       0.00353612       0.00356349       0.00360766       0.00358248       0.00364453       0.00363248       0.00366825       0.00363175       0.00348356       0.00354963       0.00361715
         0.00366241       0.00385002       0.00382338       0.00374235       0.00363796       0.00366862       0.00372446       0.00363138       0.00357663       0.00369928       0.00375475       0.00367701       0.00359561       0.00360912       0.00366424       0.00365694       0.00359853       0.00367445       0.00364234       0.00365913
         0.00371497       0.00363211       0.00361094       0.00363358       0.00359598       0.00359087       0.00360218       0.00357153       0.00360803       0.00355510       0.00363869       0.00367117       0.00369490       0.00368212       0.00376425       0.00372045       0.00368650       0.00371971       0.00381279       0.00379235
         0.00378213       0.00378615       0.00375585       0.00372628       0.00383651       0.00381242       0.00384235       0.00373468       0.00367008       0.00368395       0.00363029       0.00368832       0.00365037       0.00365255       0.00362883       0.00355693       0.00360912       0.00354525       0.00362080       0.00366862
         0.00367154       0.00366205       0.00369855       0.00371022       0.00380367       0.00378541       0.00383104       0.00372921       0.00356824       0.00368322       0.00366788       0.00368395       0.00371424       0.00361788       0.00370147       0.00374161       0.00369380       0.00360073       0.00360656       0.00349378
         0.00348867       0.00354816       0.00351823       0.00349232       0.00362919       0.00368541       0.00368650       0.00377848       0.00374198       0.00377775       0.00381534       0.00370329       0.00366642       0.00365621       0.00365000       0.00361423       0.00367008       0.00366606       0.00360693       0.00354196
         0.00361350       0.00363942       0.00367920       0.00357883       0.00353685
         0.00355072       0.00351458       0.00356788       0.00349013       0.00358503       0.00357225       0.00356131       0.00356678       0.00358174       0.00352371       0.00346130       0.00354525       0.00362700       0.00366058       0.00365183       0.00370402       0.00367227       0.00357006       0.00368650       0.00363796
         0.00360766       0.00367518       0.00370731       0.00372446       0.00364745       0.00369562       0.00364672       0.00363248       0.00364489       0.00364307       0.00370438       0.00367592       0.00366825       0.00368248       0.00365840       0.00370767       0.00363613       0.00358284       0.00353503       0.00369052
         0.00373578       0.00364526       0.00356860       0.00357809       0.00360474       0.00367847       0.00365621       0.00363065       0.00353648       0.00354306       0.00352773       0.00365949       0.00369526       0.00374782       0.00378943       0.00371825       0.00370001       0.00375475       0.00371388       0.00387448
         0.00380622       0.00377447       0.00382045       0.00378395       0.00382885       0.00376899       0.00379782       0.00386681       0.00371095       0.00366752       0.00366205       0.00375695       0.00354342       0.00364672       0.00361898       0.00366132       0.00356131       0.00356240       0.00352553       0.00368869
         0.00367154       0.00371752       0.00373249       0.00382155       0.00377045       0.00382556       0.00375293       0.00371680       0.00356860       0.00363138       0.00368978       0.00359415       0.00356824       0.00355802       0.00364124       0.00369088       0.00375366       0.00359744       0.00363467       0.00356094
         0.00354634       0.00356568       0.00357773       0.00348137       0.00355364       0.00362591       0.00365548       0.00372994       0.00373979       0.00368577       0.00371789       0.00373760       0.00372300       0.00370731       0.00364088       0.00361021       0.00368468       0.00363029       0.00366241       0.00367336
         0.00360145       0.00365219       0.00362153       0.00361605       0.00356203
         0.00347444       0.00346057       0.00356824       0.00346568       0.00353174       0.00344159       0.00341603       0.00341676       0.00345801       0.00351276       0.00356423       0.00355510       0.00358248       0.00364708       0.00372482       0.00370804       0.00375695       0.00366497       0.00371388       0.00365438
         0.00358868       0.00356276       0.00364161       0.00365438       0.00371315       0.00369562       0.00356496       0.00358539       0.00361313       0.00366351       0.00361678       0.00367081       0.00360839       0.00366314       0.00368978       0.00371059       0.00361824       0.00371607       0.00367884       0.00371132
         0.00369781       0.00365767       0.00357444       0.00370147       0.00369161       0.00369052       0.00371424       0.00365365       0.00365511       0.00369088       0.00365548       0.00370183       0.00371789       0.00369088       0.00378541       0.00379673       0.00377447       0.00375841       0.00383432       0.00378907
         0.00380367       0.00375439       0.00378761       0.00375768       0.00371461       0.00375695       0.00371789       0.00384929       0.00371643       0.00374161       0.00362846       0.00364161       0.00361021       0.00365073       0.00353211       0.00356824       0.00354634       0.00358722       0.00356203       0.00362299
         0.00360985       0.00371132       0.00378140       0.00383505       0.00388251       0.00382118       0.00379892       0.00370183       0.00369417       0.00359963       0.00358101       0.00355620       0.00360255       0.00354342       0.00365365       0.00365548       0.00367847       0.00352626       0.00358978       0.00357883
         0.00362299       0.00353576       0.00354963       0.00352116       0.00362007       0.00362408       0.00362591       0.00366935       0.00360656       0.00366241       0.00371825       0.00370658       0.00374088       0.00372592       0.00374965       0.00362445       0.00365219       0.00358941       0.00362993       0.00363978
         0.00364599       0.00366460       0.00356678       0.00358466       0.00354561
         0.00350875       0.00341932       0.00348976       0.00337844       0.00340216       0.00338683       0.00339888       0.00335909       0.00341530       0.00344925       0.00350984       0.00352882       0.00352736       0.00362993       0.00359634       0.00367738       0.00368212       0.00365584       0.00368541       0.00369635
         0.00368030       0.00365475       0.00365475       0.00367300       0.00374965       0.00369161       0.00356970       0.00360291       0.00362993       0.00361898       0.00362518       0.00365037       0.00361350       0.00366715       0.00370621       0.00371315       0.00367884       0.00373979       0.00379928       0.00369125
         0.00364964       0.00359160       0.00362116       0.00368102       0.00370548       0.00367665       0.00374015       0.00372957       0.00379709       0.00383651       0.00375768       0.00377118       0.00375841       0.00380768       0.00375147       0.00383250       0.00379637       0.00376388       0.00380768       0.00384418
         0.00381352       0.00372848       0.00378834       0.00373358       0.00368066       0.00369307       0.00363029       0.00373869       0.00373395       0.00364343       0.00371898       0.00355291       0.00352846       0.00352590       0.00353721       0.00349853       0.00355255       0.00356605       0.00353393       0.00348393
         0.00364015       0.00365657       0.00366497       0.00380658       0.00383323       0.00377702       0.00379454       0.00373687       0.00366460       0.00360438       0.00363065       0.00367117       0.00367701       0.00363211       0.00368905       0.00371205       0.00364015       0.00364562       0.00361934       0.00363138
         0.00358941       0.00363869       0.00367884       0.00368978       0.00368139       0.00351057       0.00359306       0.00361386       0.00357773       0.00365657       0.00365110       0.00367811       0.00366752       0.00369417       0.00360583       0.00360364       0.00357663       0.00356131       0.00362189       0.00357992
         0.00375439       0.00364453       0.00356313       0.00360912       0.00361204
         0.00346495       0.00327989       0.00332114       0.00331530       0.00334449       0.00340618       0.00342845       0.00340508       0.00342845       0.00349597       0.00347845       0.00353941       0.00358466       0.00353283       0.00358649       0.00361240       0.00359561       0.00357444       0.00363358       0.00368978
         0.00366132       0.00366205       0.00365657       0.00368212       0.00378213       0.00366570       0.00357481       0.00363102       0.00363431       0.00371241       0.00370731       0.00362481       0.00363358       0.00365146       0.00370329       0.00381279       0.00374855       0.00380585       0.00384016       0.00368175
         0.00360656       0.00361423       0.00363650       0.00375768       0.00372884       0.00371570       0.00372446       0.00381388       0.00381096       0.00381936       0.00385184       0.00384381       0.00376461       0.00381096       0.00378870       0.00385951       0.00382411       0.00385696       0.00378578       0.00379381
         0.00377191       0.00381096       0.00373578       0.00368650       0.00379162       0.00372701       0.00366570       0.00356386       0.00367190       0.00367044       0.00361313       0.00359233       0.00360291       0.00357809       0.00338245       0.00342845       0.00354342       0.00348758       0.00344341       0.00356167
         0.00354561       0.00367336       0.00361569       0.00362810       0.00365803       0.00358613       0.00371095       0.00376461       0.00376278       0.00370585       0.00360291       0.00361386       0.00369161       0.00370402       0.00367957       0.00366058       0.00361533       0.00365621       0.00365985       0.00360145
         0.00362700       0.00365292       0.00378104       0.00373833       0.00368905       0.00352991       0.00357736       0.00364124       0.00363759       0.00359415       0.00359306       0.00367300       0.00359123       0.00364307       0.00358393       0.00365110       0.00356203       0.00351422       0.00356824       0.00359233
         0.00364416       0.00364818       0.00366424       0.00363577       0.00364051
         0.00350436       0.00332515       0.00335873       0.00331895       0.00339012       0.00341348       0.00346458       0.00348648       0.00350218       0.00351933       0.00351021       0.00354050       0.00347334       0.00355291       0.00354598       0.00363394       0.00362007       0.00355766       0.00363065       0.00365475
         0.00363905       0.00373578       0.00367811       0.00367592       0.00370913       0.00366715       0.00359379       0.00365657       0.00364745       0.00360547       0.00363832       0.00360255       0.00354269       0.00356021       0.00366533       0.00373468       0.00367263       0.00378907       0.00377702       0.00366205
         0.00365548       0.00366752       0.00367665       0.00373651       0.00375475       0.00382629       0.00386754       0.00390915       0.00382484       0.00386937       0.00389309       0.00388141       0.00392120       0.00380951       0.00381315       0.00376644       0.00387192       0.00388981       0.00381644       0.00372519
         0.00379089       0.00377118       0.00367628       0.00370767       0.00368650       0.00357079       0.00360948       0.00357554       0.00365110       0.00363540       0.00360073       0.00355766       0.00358868       0.00357846       0.00353174       0.00354963       0.00358795       0.00352261       0.00351386       0.00356423
         0.00357518       0.00353247       0.00354561       0.00352225       0.00349962       0.00357116       0.00373249       0.00368869       0.00367190       0.00366898       0.00363431       0.00358831       0.00364708       0.00370658       0.00359853       0.00355255       0.00359123       0.00365803       0.00365657       0.00363686
         0.00361350       0.00370658       0.00365657       0.00368687       0.00369161       0.00363394       0.00359890       0.00358430       0.00367774       0.00365584       0.00350656       0.00359963       0.00362226       0.00367774       0.00379454       0.00370585       0.00367336       0.00369234       0.00363138       0.00365183
         0.00370110       0.00366642       0.00373869       0.00375366       0.00366642
         0.00351166       0.00342699       0.00351203       0.00345144       0.00338975       0.00350218       0.00355620       0.00357700       0.00354196       0.00357079       0.00364453       0.00363759       0.00350327       0.00355984       0.00349451       0.00355291       0.00352809       0.00364197       0.00361240       0.00360803
         0.00369417       0.00373395       0.00364854       0.00363321       0.00357736       0.00368175       0.00368796       0.00365949       0.00367628       0.00362773       0.00353576       0.00359415       0.00364088       0.00350181       0.00366241       0.00375768       0.00372921       0.00370475       0.00359634       0.00361350
         0.00354598       0.00360693       0.00368468       0.00374344       0.00377483       0.00389893       0.00391864       0.00386937       0.00391754       0.00386207       0.00392740       0.00395258       0.00392484       0.00392375       0.00386718       0.00379928       0.00387374       0.00393616       0.00382009       0.00380841
         0.00376899       0.00370585       0.00369307       0.00369234       0.00366022       0.00363211       0.00362080       0.00359525       0.00360948       0.00364599       0.00359488       0.00346276       0.00351896       0.00352553       0.00357189       0.00357043       0.00358795       0.00359343       0.00357153       0.00353211
         0.00356714       0.00349706       0.00349633       0.00354306       0.00360255       0.00352809       0.00357262       0.00362408       0.00359963       0.00361715       0.00360036       0.00364161       0.00368942       0.00361678       0.00353685       0.00344341       0.00358211       0.00363832       0.00359415       0.00371607
         0.00370365       0.00365328       0.00363431       0.00372118       0.00377702       0.00361459       0.00365000       0.00370220       0.00366679       0.00368942       0.00359269       0.00360912       0.00368468       0.00368358       0.00372592       0.00375731       0.00375329       0.00372738       0.00370074       0.00373285
         0.00367884       0.00367701       0.00372811       0.00369490       0.00369088
         0.00370256       0.00354634       0.00350363       0.00353576       0.00343319       0.00357736       0.00355036       0.00357006       0.00363577       0.00357153       0.00358685       0.00363358       0.00358028       0.00356714       0.00351605       0.00357444       0.00357371       0.00365328       0.00366387       0.00360073
         0.00370475       0.00374088       0.00369161       0.00357846       0.00362700       0.00369015       0.00366752       0.00357408       0.00359561       0.00354451       0.00349415       0.00357554       0.00356860       0.00359488       0.00367263       0.00373358       0.00369161       0.00367738       0.00364197       0.00354086
         0.00354488       0.00355693       0.00366424       0.00370438       0.00379637       0.00384528       0.00383944       0.00381571       0.00382739       0.00380403       0.00386134       0.00396354       0.00397266       0.00395039       0.00390951       0.00385221       0.00389637       0.00387484       0.00384235       0.00379125
         0.00372775       0.00370001       0.00376899       0.00365730       0.00366278       0.00362189       0.00364781       0.00363759       0.00362080       0.00357298       0.00355072       0.00347444       0.00349998       0.00352626       0.00352079       0.00359160       0.00360255       0.00356313       0.00354853       0.00347371
         0.00346312       0.00341603       0.00353758       0.00354707       0.00354525       0.00349706       0.00350692       0.00363394       0.00353174       0.00349232       0.00358831       0.00370183       0.00362846       0.00361788       0.00371716       0.00353576       0.00362007       0.00368723       0.00372227       0.00379928
         0.00379527       0.00373176       0.00366022       0.00368431       0.00370183       0.00377629       0.00365511       0.00361423       0.00363613       0.00364234       0.00367008       0.00367738       0.00368760       0.00368541       0.00364964       0.00365840       0.00370147       0.00365219       0.00366971       0.00367154
         0.00360109       0.00362153       0.00369125       0.00364416       0.00361605
         0.00372337       0.00358393       0.00360656       0.00357335       0.00353065       0.00354634       0.00363138       0.00362043       0.00361168       0.00358430       0.00360547       0.00362481       0.00367154       0.00355510       0.00364599       0.00362189       0.00354050       0.00357736       0.00357627       0.00355181
         0.00358831       0.00369380       0.00363650       0.00364964       0.00362226       0.00369234       0.00363978       0.00359926       0.00356423       0.00347590       0.00361131       0.00360912       0.00359963       0.00365621       0.00369307       0.00365548       0.00368614       0.00368577       0.00357481       0.00361386
         0.00362956       0.00355729       0.00355620       0.00373103       0.00384272       0.00386681       0.00385988       0.00386024       0.00390477       0.00391280       0.00389090       0.00393397       0.00396791       0.00393141       0.00388031       0.00390769       0.00390258       0.00387594       0.00382921       0.00370074
         0.00356203       0.00366314       0.00373468       0.00362810       0.00357955       0.00358978       0.00357554       0.00356897       0.00358357       0.00355766       0.00357153       0.00354671       0.00345838       0.00352773       0.00351605       0.00349998       0.00359963       0.00358211       0.00356897       0.00355984
         0.00352079       0.00349998       0.00352188       0.00368175       0.00367117       0.00358101       0.00350911       0.00364818       0.00350692       0.00352006       0.00350911       0.00355072       0.00355693       0.00366642       0.00365840       0.00359306       0.00361386       0.00365255       0.00368978       0.00376059