BEGIN options
END options

BEGIN dimensions
  MAXBOUND  90
END dimensions

BEGIN period  1
  1 111 43       1.79000000   80000.00000000      -0.21000000
  1 112 43       1.77000000   80000.00000000      -0.23000000
  1 113 43       1.75000000   80000.00000000      -0.25000000
  1 114 43       1.73000000   80000.00000000      -0.27000000
  1 115 43       1.71000000   80000.00000000      -0.29000000
  1 116 43       1.69000000   80000.00000000      -0.31000000
  1 117 43       1.67000000   80000.00000000      -0.33000000
  1 118 43       1.65000000   80000.00000000      -0.35000000
  1 119 43       1.63000000   80000.00000000      -0.37000000
  1 120 43       1.61000000   80000.00000000      -0.39000000
  1 121 43       1.59000000   80000.00000000      -0.41000000
  1 122 43       1.57000000   80000.00000000      -0.43000000
  1 123 43       1.55000000   80000.00000000      -0.45000000
  1 124 43       1.53000000   80000.00000000      -0.47000000
  1 125 43       1.51000000   80000.00000000      -0.49000000
  1 126 43       1.49000000   80000.00000000      -0.51000000
  1 127 43       1.47000000   80000.00000000      -0.53000000
  1 128 43       1.45000000   80000.00000000      -0.55000000
  1 129 43       1.43000000   80000.00000000      -0.57000000
  1 130 43       1.41000000   80000.00000000      -0.59000000
  1 131 43       1.39000000   80000.00000000      -0.61000000
  1 132 43       1.37000000   80000.00000000      -0.63000000
  1 133 43       1.35000000   80000.00000000      -0.65000000
  1 134 43       1.33000000   80000.00000000      -0.67000000
  1 135 43       1.31000000   80000.00000000      -0.69000000
  1 136 43       1.29000000   80000.00000000      -0.71000000
  1 137 43       1.27000000   80000.00000000      -0.73000000
  1 138 43       1.25000000   80000.00000000      -0.75000000
  1 139 43       1.23000000   80000.00000000      -0.77000000
  1 140 43       1.21000000   80000.00000000      -0.79000000
  1 141 43       1.19000000   80000.00000000      -0.81000000
  1 142 43       1.17000000   80000.00000000      -0.83000000
  1 143 43       1.15000000   80000.00000000      -0.85000000
  1 144 43       1.13000000   80000.00000000      -0.87000000
  1 145 43       1.11000000   80000.00000000      -0.89000000
  1 146 43       1.09000000   80000.00000000      -0.91000000
  1 147 43       1.07000000   80000.00000000      -0.93000000
  1 148 43       1.05000000   80000.00000000      -0.95000000
  1 149 43       1.03000000   80000.00000000      -0.97000000
  1 150 43       1.01000000   80000.00000000      -0.99000000
  1 151 43       0.99000000   80000.00000000      -1.01000000
  1 152 43       0.97000000   80000.00000000      -1.03000000
  1 153 43       0.95000000   80000.00000000      -1.05000000
  1 154 43       0.93000000   80000.00000000      -1.07000000
  1 155 43       0.91000000   80000.00000000      -1.09000000
  1 156 43       0.89000000   80000.00000000      -1.11000000
  1 157 43       0.87000000   80000.00000000      -1.13000000
  1 158 43       0.85000000   80000.00000000      -1.15000000
  1 159 43       0.83000000   80000.00000000      -1.17000000
  1 160 43       0.81000000   80000.00000000      -1.19000000
  1 161 43       0.79000000   80000.00000000      -1.21000000
  1 162 43       0.77000000   80000.00000000      -1.23000000
  1 163 43       0.75000000   80000.00000000      -1.25000000
  1 164 43       0.73000000   80000.00000000      -1.27000000
  1 165 43       0.71000000   80000.00000000      -1.29000000
  1 166 43       0.69000000   80000.00000000      -1.31000000
  1 167 43       0.67000000   80000.00000000      -1.33000000
  1 168 43       0.65000000   80000.00000000      -1.35000000
  1 169 43       0.63000000   80000.00000000      -1.37000000
  1 170 43       0.61000000   80000.00000000      -1.39000000
  1 171 43       0.59000000   80000.00000000      -1.41000000
  1 172 43       0.57000000   80000.00000000      -1.43000000
  1 173 43       0.55000000   80000.00000000      -1.45000000
  1 174 43       0.53000000   80000.00000000      -1.47000000
  1 175 43       0.51000000   80000.00000000      -1.49000000
  1 176 43       0.49000000   80000.00000000      -1.51000000
  1 177 43       0.47000000   80000.00000000      -1.53000000
  1 178 43       0.45000000   80000.00000000      -1.55000000
  1 179 43       0.43000000   80000.00000000      -1.57000000
  1 180 43       0.41000000   80000.00000000      -1.59000000
  1 181 43       0.39000000   80000.00000000      -1.61000000
  1 182 43       0.37000000   80000.00000000      -1.63000000
  1 183 43       0.35000000   80000.00000000      -1.65000000
  1 184 43       0.33000000   80000.00000000      -1.67000000
  1 185 43       0.31000000   80000.00000000      -1.69000000
  1 186 43       0.29000000   80000.00000000      -1.71000000
  1 187 43       0.27000000   80000.00000000      -1.73000000
  1 188 43       0.25000000   80000.00000000      -1.75000000
  1 189 43       0.23000000   80000.00000000      -1.77000000
  1 190 43       0.21000000   80000.00000000      -1.79000000
  1 191 43       0.19000000   80000.00000000      -1.81000000
  1 192 43       0.17000000   80000.00000000      -1.83000000
  1 193 43       0.15000000   80000.00000000      -1.85000000
  1 194 43       0.13000000   80000.00000000      -1.87000000
  1 195 43       0.11000000   80000.00000000      -1.89000000
  1 196 43       0.09000000   80000.00000000      -1.91000000
  1 197 43       0.07000000   80000.00000000      -1.93000000
  1 198 43       0.05000000   80000.00000000      -1.95000000
  1 199 43       0.03000000   80000.00000000      -1.97000000
  1 200 43       0.01000000   80000.00000000      -1.99000000
END period  1

