BEGIN options
END options

BEGIN griddata
  icelltype
    CONSTANT  0
  k  LAYERED
    INTERNAL  FACTOR  1.0
         370.88000000     346.14000000     335.96000000     344.22000000     382.37000000     387.42000000     410.37000000     399.92000000     374.57000000     376.04000000     391.54000000     387.11000000     367.43000000     360.87000000     386.25000000     419.71000000     415.51000000     423.11000000     427.51000000     443.17000000
         433.10000000     422.30000000     410.91000000     389.12000000     385.10000000     393.24000000     379.03000000     386.36000000     395.99000000     365.34000000     388.72000000     400.48000000     408.71000000     413.54000000     422.58000000     405.06000000     432.35000000     446.01000000     412.29000000     404.00000000
         392.73000000     383.67000000     378.57000000     376.12000000     368.46000000     366.36000000     348.38000000     362.78000000     365.24000000     334.52000000     315.17000000     336.14000000     349.85000000     363.12000000     339.14000000     326.47000000     311.62000000     306.29000000     307.34000000     334.34000000
         323.05000000     332.69000000     336.69000000     338.71000000     335.97000000     324.98000000     308.02000000     279.34000000     287.94000000     298.48000000     300.37000000     292.28000000     296.98000000     307.90000000     331.24000000     340.95000000     360.19000000     360.77000000     351.37000000     341.76000000
         318.94000000     320.51000000     339.10000000     337.23000000     367.29000000     367.98000000     392.34000000     388.08000000     379.95000000     361.79000000     331.00000000     319.74000000     316.73000000     331.16000000     333.94000000     342.63000000     321.11000000     315.61000000     338.52000000     351.81000000
         360.43000000     341.97000000     353.53000000     337.98000000     324.16000000     321.15000000     312.72000000     264.44000000     246.14000000     222.26000000     197.78000000     197.66000000     215.80000000     172.77000000     161.93000000     172.51000000     170.47000000     167.42000000     163.57000000     167.23000000
         153.07000000     135.87000000     155.68000000     158.92000000     137.38000000
         366.72000000     338.56000000     352.15000000     357.36000000     380.42000000     402.25000000     399.18000000     385.45000000     373.33000000     373.99000000     362.48000000     386.04000000     368.97000000     349.62000000     375.22000000     412.74000000     412.20000000     410.80000000     433.85000000     438.82000000
         423.24000000     405.01000000     400.05000000     389.74000000     372.72000000     376.28000000     365.23000000     373.13000000     386.23000000     369.28000000     361.06000000     371.97000000     382.60000000     421.06000000     441.43000000     458.05000000     434.19000000     438.54000000     415.83000000     402.32000000
         395.97000000     401.42000000     397.36000000     394.87000000     369.78000000     349.03000000     328.08000000     343.86000000     333.24000000     312.67000000     279.01000000     322.55000000     346.05000000     357.29000000     353.99000000     333.70000000     305.39000000     288.86000000     280.86000000     319.03000000
         321.05000000     297.34000000     330.20000000     316.41000000     325.64000000     337.24000000     322.87000000     304.32000000     301.68000000     298.62000000     292.22000000     304.06000000     296.15000000     308.07000000     324.54000000     363.28000000     353.21000000     349.37000000     345.32000000     333.55000000
         320.97000000     310.42000000     347.75000000     363.05000000     371.04000000     382.88000000     378.63000000     363.45000000     321.19000000     332.21000000     320.81000000     330.58000000     329.83000000     333.48000000     319.71000000     312.82000000     332.60000000     324.00000000     319.66000000     317.59000000
         322.89000000     342.22000000     333.04000000     329.99000000     332.99000000     326.58000000     302.24000000     272.32000000     247.41000000     218.87000000     196.72000000     190.42000000     204.49000000     184.61000000     164.52000000     173.15000000     160.01000000     152.16000000     150.01000000     142.93000000
         141.88000000     131.91000000     126.46000000     129.67000000     127.55000000
         378.99000000     360.90000000     353.41000000     360.33000000     375.06000000     407.58000000     401.69000000     396.41000000     382.06000000     358.32000000     366.16000000     372.56000000     368.27000000     373.13000000     408.52000000     401.30000000     430.91000000     424.44000000     440.24000000     442.09000000
         443.27000000     415.41000000     400.17000000     398.46000000     375.33000000     377.11000000     376.13000000     368.09000000     376.08000000     359.91000000     354.90000000     376.30000000     383.14000000     414.72000000     455.34000000     465.32000000     478.43000000     449.90000000     420.28000000     444.87000000
         418.23000000     409.55000000     427.96000000     418.17000000     378.12000000     336.53000000     340.46000000     336.37000000     317.19000000     310.29000000     306.78000000     294.09000000     328.32000000     348.56000000     362.19000000     333.43000000     317.78000000     289.09000000     279.54000000     331.92000000
         315.05000000     327.79000000     325.65000000     314.24000000     320.12000000     341.63000000     339.42000000     327.29000000     319.71000000     299.62000000     295.23000000     318.72000000     342.02000000     362.39000000     347.02000000     346.25000000     353.47000000     348.83000000     347.69000000     342.62000000
         295.53000000     311.50000000     352.02000000     367.91000000     384.86000000     414.74000000     369.14000000     348.73000000     331.87000000     339.20000000     326.02000000     308.42000000     328.27000000     342.03000000     326.67000000     325.28000000     325.54000000     336.07000000     319.76000000     310.14000000
         326.65000000     349.31000000     336.97000000     337.50000000     338.44000000     330.75000000     310.11000000     294.20000000     242.01000000     233.25000000     222.11000000     195.77000000     185.66000000     166.27000000     168.13000000     170.63000000     175.17000000     165.28000000     147.65000000     126.78000000
         112.46000000     129.38000000     112.85000000     133.70000000     130.42000000
         367.63000000     381.65000000     370.78000000     360.17000000     361.21000000     371.54000000     370.60000000     380.36000000     357.29000000     372.24000000     367.06000000     372.60000000     362.93000000     390.98000000     409.13000000     413.38000000     409.93000000     429.42000000     439.55000000     432.25000000
         436.80000000     415.96000000     415.32000000     383.60000000     380.07000000     372.48000000     361.61000000     360.84000000     373.30000000     366.36000000     350.39000000     369.65000000     404.18000000     425.92000000     451.05000000     461.53000000     480.02000000     447.58000000     452.37000000     406.24000000
         424.20000000     395.14000000     411.07000000     413.49000000     401.46000000     380.60000000     348.33000000     349.29000000     335.09000000     321.44000000     320.49000000     334.10000000     306.99000000     323.36000000     322.91000000     334.15000000     313.66000000     287.36000000     312.05000000     309.82000000
         347.28000000     350.29000000     342.94000000     328.14000000     339.01000000     353.68000000     355.50000000     318.25000000     312.60000000     299.09000000     319.94000000     343.18000000     346.82000000     377.41000000     374.46000000     357.32000000     359.04000000     362.49000000     350.64000000     316.14000000
         316.66000000     338.77000000     347.04000000     357.05000000     380.57000000     389.77000000     377.91000000     358.52000000     343.62000000     349.32000000     322.72000000     321.68000000     326.56000000     332.21000000     313.66000000     315.36000000     321.38000000     334.11000000     337.36000000     328.51000000
         361.62000000     349.95000000     359.35000000     348.40000000     353.04000000     323.81000000     294.51000000     294.82000000     283.96000000     238.00000000     223.51000000     174.96000000     131.93000000     138.59000000     143.30000000     157.56000000     168.15000000     161.40000000     137.33000000     126.34000000
         127.01000000     120.80000000     130.86000000     129.27000000     141.33000000
         339.69000000     350.99000000     368.56000000     369.34000000     351.54000000     364.27000000     349.69000000     352.34000000     355.21000000     361.46000000     353.52000000     354.05000000     374.93000000     392.02000000     393.80000000     402.38000000     415.90000000     415.31000000     405.41000000     417.35000000
         425.18000000     408.37000000     403.40000000     386.27000000     384.69000000     362.65000000     340.54000000     354.01000000     360.39000000     363.76000000     342.77000000     377.67000000     389.43000000     427.90000000     436.44000000     440.81000000     450.59000000     449.59000000     433.27000000     427.77000000
         426.73000000     410.96000000     402.88000000     404.65000000     403.64000000     369.84000000     350.85000000     334.17000000     338.35000000     341.40000000     337.02000000     350.74000000     335.87000000     317.13000000     307.83000000     323.87000000     296.10000000     266.76000000     290.88000000     303.41000000
         327.12000000     347.26000000     327.90000000     329.44000000     346.68000000     370.58000000     350.52000000     341.94000000     315.45000000     315.15000000     325.88000000     338.01000000     348.59000000     355.73000000     350.02000000     355.36000000     370.52000000     338.51000000     328.04000000     335.79000000
         347.99000000     331.29000000     346.86000000     358.69000000     370.96000000     406.47000000     372.97000000     359.80000000     363.23000000     352.30000000     330.22000000     305.50000000     293.08000000     306.77000000     306.69000000     301.36000000     301.52000000     324.04000000     348.74000000     343.85000000
         365.76000000     345.89000000     339.81000000     329.87000000     326.16000000     313.34000000     313.47000000     278.81000000     276.54000000     229.21000000     213.73000000     188.51000000     150.41000000     125.73000000     139.67000000     144.59000000     149.71000000     140.80000000     116.92000000      80.45000000
         105.23000000     117.80000000     127.78000000     107.12000000     114.13000000
         339.99000000     366.77000000     379.61000000     382.37000000     370.05000000     358.69000000     344.35000000     370.89000000     355.51000000     357.27000000     357.56000000     368.34000000     386.93000000     399.24000000     393.29000000     398.72000000     403.93000000     402.03000000     424.18000000     436.08000000
         417.74000000     389.81000000     395.81000000     391.44000000     362.90000000     367.19000000     374.91000000     358.33000000     375.68000000     356.28000000     358.37000000     395.26000000     427.83000000     443.02000000     424.16000000     454.18000000     430.57000000     429.23000000     437.07000000     414.52000000
         423.62000000     420.46000000     419.22000000     436.24000000     418.06000000     396.88000000     374.03000000     369.10000000     362.85000000     365.50000000     339.36000000     349.43000000     355.96000000     339.36000000     326.07000000     338.84000000     311.49000000     283.41000000     282.87000000     304.33000000
         338.99000000     358.85000000     349.90000000     333.67000000     350.30000000     375.69000000     371.18000000     341.66000000     341.47000000     364.19000000     362.47000000     371.59000000     377.44000000     367.36000000     349.05000000     356.79000000     369.51000000     358.44000000     334.47000000     360.70000000
         378.14000000     358.32000000     372.99000000     387.64000000     380.62000000     402.62000000     394.45000000     392.35000000     381.35000000     352.39000000     340.11000000     311.12000000     316.93000000     320.87000000     315.06000000     286.16000000     305.79000000     345.44000000     354.19000000     370.41000000
         369.90000000     363.15000000     373.01000000     326.61000000     309.03000000     303.36000000     314.89000000     292.59000000     285.93000000     244.17000000     226.28000000     196.28000000     185.96000000     146.84000000     162.33000000     161.59000000     164.25000000     147.78000000     110.98000000      94.66000000
          92.32000000     108.46000000     105.49000000     110.87000000      90.06000000
         364.50000000     353.07000000     396.24000000     385.53000000     386.67000000     368.92000000     368.19000000     362.45000000     378.24000000     368.60000000     386.08000000     383.98000000     401.88000000     385.57000000     407.55000000     398.26000000     416.33000000     428.33000000     431.51000000     452.92000000
         429.61000000     411.54000000     383.61000000     373.39000000     358.95000000     370.04000000     374.61000000     365.09000000     370.53000000     370.94000000     395.61000000     417.51000000     438.08000000     452.40000000     421.32000000     447.80000000     427.36000000     430.02000000     420.46000000     431.45000000
         446.84000000     427.26000000     445.68000000     461.96000000     452.86000000     433.04000000     417.64000000     408.55000000     409.19000000     374.61000000     361.80000000     359.11000000     351.57000000     361.35000000     354.49000000     349.74000000     329.25000000     295.69000000     317.61000000     336.01000000
         327.93000000     335.48000000     331.39000000     376.31000000     385.75000000     398.92000000     386.95000000     374.81000000     383.82000000     383.64000000     396.42000000     382.01000000     400.08000000     384.29000000     382.08000000     392.77000000     378.80000000     372.64000000     392.83000000     380.04000000
         380.91000000     376.56000000     403.23000000     396.47000000     414.33000000     396.18000000     404.55000000     400.00000000     364.83000000     372.20000000     368.58000000     337.57000000     323.24000000     333.55000000     325.46000000     323.04000000     306.14000000     354.12000000     368.54000000     365.26000000
         372.23000000     367.67000000     364.74000000     330.21000000     331.25000000     317.38000000     309.02000000     302.14000000     287.58000000     281.76000000     234.53000000     215.87000000     196.75000000     160.23000000     168.61000000     191.99000000     189.86000000     136.66000000     123.21000000     114.83000000
         122.02000000     118.56000000     122.46000000     127.13000000     110.64000000
         341.21000000     338.66000000     347.15000000     346.75000000     324.41000000     347.23000000     350.81000000     355.57000000     358.19000000     401.79000000     377.66000000     382.09000000     363.46000000     366.78000000     392.09000000     388.81000000     400.61000000     427.12000000     440.49000000     430.51000000
         408.76000000     389.45000000     353.31000000     338.25000000     340.03000000     355.50000000     355.89000000     366.54000000     356.48000000     357.18000000     379.90000000     409.63000000     426.99000000     429.06000000     406.27000000     416.24000000     418.45000000     429.09000000     444.65000000     423.43000000
         414.90000000     416.01000000     444.96000000     450.64000000     460.65000000     440.59000000     423.46000000     413.34000000     392.93000000     391.52000000     367.83000000     352.73000000     334.34000000     354.73000000     347.53000000     328.78000000     312.87000000     310.84000000     295.56000000     307.43000000
         321.62000000     320.14000000     333.64000000     346.84000000     372.35000000     395.40000000     401.15000000     390.43000000     379.66000000     405.32000000     417.27000000     405.82000000     413.58000000     392.39000000     383.56000000     369.73000000     373.62000000     391.52000000     392.13000000     383.16000000
         394.78000000     391.20000000     414.20000000     414.67000000     416.08000000     413.15000000     407.44000000     399.17000000     378.49000000     355.57000000     356.99000000     320.90000000     325.79000000     311.45000000     313.37000000     317.47000000     342.56000000     351.91000000     353.32000000     361.73000000
         357.69000000     352.85000000     331.19000000     309.20000000     317.20000000     311.13000000     295.77000000     262.92000000     271.18000000     258.02000000     267.77000000     253.59000000     211.30000000     156.64000000     146.10000000     147.89000000     144.12000000     132.28000000     137.55000000     136.04000000
         110.82000000     108.61000000     112.90000000     112.75000000      94.15000000
         336.82000000     352.97000000     330.77000000     307.66000000     326.39000000     336.05000000     340.68000000     354.47000000     361.05000000     374.85000000     383.09000000     363.71000000     369.15000000     333.36000000     368.85000000     369.22000000     401.65000000     406.08000000     403.55000000     414.30000000
         396.60000000     372.40000000     349.79000000     335.84000000     331.34000000     347.26000000     336.42000000     355.60000000     356.10000000     349.36000000     370.24000000     405.25000000     416.16000000     418.27000000     394.20000000     404.85000000     405.42000000     434.31000000     430.93000000     414.98000000
         421.58000000     403.54000000     409.38000000     451.78000000     454.49000000     469.41000000     450.45000000     431.33000000     421.73000000     400.64000000     377.79000000     350.24000000     329.39000000     312.28000000     320.48000000     321.22000000     326.71000000     334.64000000     313.50000000     311.38000000
         325.40000000     329.25000000     327.40000000     349.59000000     357.31000000     375.13000000     372.09000000     392.22000000     401.49000000     407.26000000     440.28000000     422.60000000     412.83000000     413.37000000     414.45000000     399.07000000     397.90000000     394.58000000     385.24000000     391.67000000
         396.54000000     395.21000000     405.59000000     390.52000000     398.46000000     416.16000000     417.56000000     401.62000000     386.35000000     363.47000000     353.02000000     324.63000000     316.19000000     314.72000000     308.42000000     300.92000000     332.41000000     341.99000000     342.18000000     352.00000000
         338.77000000     325.19000000     312.66000000     302.45000000     297.20000000     289.62000000     276.24000000     267.58000000     263.74000000     246.85000000     265.54000000     242.56000000     236.03000000     151.85000000     135.29000000     149.43000000     140.98000000     129.43000000     120.64000000      85.59000000
         111.18000000     118.69000000     119.24000000     105.83000000      99.82000000
         326.89000000     313.92000000     313.13000000     329.93000000     332.54000000     337.84000000     329.03000000     347.61000000     368.81000000     345.32000000     339.62000000     351.94000000     332.23000000     336.60000000     340.50000000     367.94000000     381.51000000     398.59000000     377.92000000     382.57000000
         386.09000000     368.19000000     348.60000000     338.97000000     352.02000000     338.33000000     352.23000000     328.09000000     336.51000000     347.91000000     361.99000000     418.00000000     410.56000000     399.56000000     397.14000000     381.46000000     415.77000000     429.69000000     422.71000000     422.71000000
         399.05000000     403.71000000     415.67000000     414.15000000     431.97000000     442.79000000     432.61000000     444.53000000     421.14000000     423.38000000     381.55000000     377.10000000     342.46000000     312.80000000     330.01000000     336.07000000     343.30000000     350.15000000     313.36000000     316.89000000
         341.34000000     332.99000000     346.49000000     348.62000000     365.97000000     353.05000000     381.89000000     384.82000000     391.04000000     376.45000000     428.21000000     421.04000000     433.26000000     443.07000000     445.70000000     427.68000000     399.53000000     407.56000000     407.23000000     417.95000000
         405.07000000     381.15000000     397.68000000     393.88000000     394.81000000     401.45000000     423.57000000     406.80000000     408.62000000     400.52000000     371.19000000     342.79000000     367.02000000     344.76000000     302.02000000     290.35000000     328.16000000     326.95000000     326.94000000     314.22000000
         317.58000000     302.96000000     299.71000000     300.31000000     310.92000000     283.21000000     272.85000000     268.35000000     267.06000000     256.42000000     242.27000000     235.24000000     207.36000000     165.43000000     151.54000000     135.20000000     119.28000000     124.16000000     108.03000000     101.65000000
         109.36000000     132.19000000     131.38000000     110.18000000     106.69000000
         314.32000000     287.41000000     301.65000000     284.63000000     293.76000000     305.53000000     311.06000000     312.61000000     343.41000000     315.43000000     303.39000000     335.22000000     339.57000000     321.72000000     326.05000000     345.06000000     353.88000000     354.36000000     353.10000000     345.29000000
         353.50000000     359.16000000     342.91000000     340.77000000     339.36000000     349.49000000     335.35000000     317.63000000     344.72000000     352.01000000     367.92000000     399.39000000     381.37000000     396.30000000     389.05000000     402.56000000     388.66000000     411.34000000     410.59000000     401.76000000
         393.51000000     390.30000000     369.65000000     389.10000000     409.27000000     425.68000000     423.93000000     439.87000000     415.12000000     430.25000000     399.10000000     378.90000000     337.48000000     328.69000000     337.85000000     339.90000000     329.07000000     349.09000000     323.25000000     337.69000000
         338.38000000     328.97000000     318.88000000     336.23000000     349.90000000     366.74000000     369.62000000     372.07000000     383.54000000     395.68000000     390.19000000     406.83000000     422.22000000     428.61000000     434.91000000     415.33000000     410.38000000     378.61000000     406.95000000     425.68000000
         417.89000000     407.89000000     404.52000000     383.51000000     414.11000000     419.10000000     398.83000000     404.97000000     395.44000000     399.89000000     363.26000000     366.23000000     352.81000000     322.42000000     292.04000000     298.76000000     305.20000000     339.20000000     302.29000000     299.75000000
         281.81000000     279.29000000     284.94000000     275.05000000     291.51000000     269.50000000     236.92000000     252.71000000     237.82000000     234.49000000     216.25000000     194.70000000     198.72000000     172.44000000     150.91000000     127.41000000     102.62000000     110.38000000     112.86000000     106.51000000
          95.42000000     104.87000000      86.00000000      84.03000000      84.02000000
         291.15000000     279.47000000     293.24000000     295.13000000     282.62000000     317.97000000     286.44000000     292.42000000     304.03000000     286.86000000     282.79000000     302.90000000     334.57000000     341.17000000     341.55000000     334.62000000     336.29000000     340.06000000     341.09000000     330.25000000
         320.96000000     328.15000000     343.99000000     331.28000000     318.21000000     333.28000000     339.78000000     329.62000000     357.38000000     359.46000000     366.54000000     364.87000000     373.71000000     391.49000000     408.95000000     367.08000000     378.71000000     384.88000000     378.55000000     394.31000000
         386.55000000     389.40000000     374.32000000     360.80000000     375.87000000     422.92000000     426.33000000     404.34000000     412.33000000     397.66000000     388.63000000     381.22000000     368.94000000     347.88000000     338.25000000     337.32000000     341.99000000     340.20000000     358.96000000     343.14000000
         339.65000000     349.67000000     355.01000000     354.74000000     351.99000000     361.52000000     366.83000000     374.40000000     392.40000000     385.19000000     383.36000000     394.31000000     414.16000000     402.70000000     386.65000000     412.17000000     411.00000000     413.98000000     412.42000000     415.92000000
         392.98000000     405.65000000     407.38000000     423.62000000     415.29000000     396.62000000     405.35000000     402.89000000     406.04000000     408.04000000     384.23000000     379.34000000     364.93000000     312.84000000     287.30000000     297.78000000     293.84000000     306.38000000     287.64000000     287.27000000
         293.06000000     268.30000000     270.57000000     276.93000000     263.07000000     248.45000000     235.67000000     246.50000000     241.38000000     206.64000000     211.25000000     201.32000000     168.58000000     145.41000000     166.07000000     144.98000000     140.12000000     139.06000000     128.05000000     113.58000000
         104.50000000      89.66000000      81.93000000      80.48000000      85.24000000
         247.30000000     313.34000000     311.64000000     297.70000000     307.59000000     295.11000000     280.61000000     274.70000000     289.43000000     287.27000000     295.39000000     313.92000000     331.88000000     347.74000000     347.24000000     361.32000000     359.57000000     327.69000000     349.37000000     327.91000000
         329.96000000     318.17000000     323.53000000     330.46000000     320.83000000     338.85000000     333.68000000     353.77000000     350.58000000     361.00000000     342.06000000     343.72000000     374.35000000     406.66000000     403.71000000     390.88000000     411.58000000     382.98000000     393.80000000     394.93000000
         406.30000000     397.11000000     372.91000000     351.71000000     382.53000000     409.34000000     410.92000000     405.74000000     414.53000000     417.97000000     395.88000000     399.94000000     398.49000000     355.01000000     375.33000000     348.44000000     336.85000000     358.40000000     362.01000000     363.24000000
         358.56000000     348.01000000     370.14000000     352.76000000     386.84000000     372.29000000     376.99000000     387.80000000     389.68000000     386.58000000     391.02000000     422.96000000     421.40000000     411.27000000     414.18000000     416.07000000     401.99000000     423.17000000     428.67000000     406.17000000
         402.42000000     403.98000000     426.49000000     435.42000000     413.82000000     409.04000000     426.39000000     434.38000000     414.17000000     415.42000000     397.53000000     395.90000000     357.95000000     322.62000000     333.29000000     325.67000000     301.38000000     298.89000000     281.71000000     274.75000000
         290.62000000     274.45000000     265.69000000     272.49000000     265.26000000     236.33000000     240.62000000     247.33000000     233.01000000     220.86000000     211.23000000     215.49000000     176.13000000     161.41000000     157.46000000     141.73000000     156.19000000     147.90000000     128.17000000     124.35000000
         122.83000000      88.14000000     102.01000000     121.00000000     101.22000000
         242.80000000     244.61000000     256.54000000     273.96000000     279.23000000     274.32000000     284.82000000     287.75000000     264.10000000     273.28000000     286.40000000     310.67000000     307.49000000     336.88000000     342.71000000     350.00000000     332.99000000     309.54000000     317.07000000     307.38000000
         288.35000000     294.25000000     319.21000000     337.53000000     322.83000000     330.25000000     319.34000000     330.03000000     346.45000000     321.37000000     325.90000000     314.82000000     340.91000000     386.30000000     386.95000000     384.87000000     395.73000000     396.47000000     380.17000000     384.27000000
         401.59000000     393.42000000     371.60000000     354.47000000     362.92000000     379.97000000     412.58000000     415.69000000     408.27000000     381.51000000     366.33000000     392.18000000     381.86000000     377.04000000     332.21000000     344.82000000     353.07000000     367.85000000     352.44000000     334.83000000
         340.51000000     349.86000000     351.14000000     372.85000000     377.74000000     367.19000000     374.61000000     383.98000000     382.04000000     375.80000000     390.73000000     420.53000000     439.97000000     436.19000000     428.08000000     409.31000000     390.30000000     379.38000000     383.15000000     405.07000000
         386.55000000     395.86000000     406.68000000     429.39000000     423.06000000     405.29000000     401.84000000     405.16000000     398.91000000     408.14000000     369.17000000     339.91000000     330.36000000     325.05000000     330.25000000     316.89000000     310.08000000     299.62000000     286.66000000     276.24000000