BEGIN options
END options

BEGIN dimensions
  NLAY  5
  NROW  200
  NCOL  125
END dimensions

BEGIN griddata
  delr
    CONSTANT     100.00000000
  delc
    CONSTANT     100.00000000
  top
    CONSTANT     100.00000000
  botm  LAYERED
    CONSTANT      -5.00000000
    CONSTANT     -50.00000000
    INTERNAL  FACTOR  1.0
         -51.47000000     -51.50000000     -51.41000000     -51.39000000     -51.33000000     -51.31000000     -51.30000000     -51.30000000     -51.32000000     -51.24000000     -51.22000000     -51.26000000     -51.30000000     -51.35000000     -51.29000000     -51.34000000     -51.31000000     -51.32000000     -51.33000000     -51.24000000
         -51.27000000     -51.31000000     -51.24000000     -51.15000000     -51.20000000     -51.21000000     -51.20000000     -51.28000000     -51.32000000     -51.33000000     -51.33000000     -51.35000000     -51.35000000     -51.37000000     -51.36000000     -51.33000000     -51.33000000     -51.34000000     -51.37000000     -51.33000000
         -51.37000000     -51.39000000     -50.00000000     -50.00000000     -50.00000000     -50.00000000     -50.00000000     -50.00000000     -50.00000000     -50.00000000     -50.00000000     -50.00000000     -50.00000000     -50.00000000     -50.00000000     -50.00000000     -50.00000000     -50.00000000     -50.00000000     -50.00000000
         -50.00000000     -50.00000000     -50.00000000     -50.00000000     -50.00000000     -50.00000000     -50.00000000     -50.00000000     -50.00000000     -50.00000000     -50.00000000     -50.00000000     -50.00000000     -50.00000000     -50.00000000     -50.00000000     -50.00000000     -50.00000000     -50.00000000     -50.00000000
         -50.00000000     -50.00000000     -50.00000000     -50.00000000     -50.00000000     -50.00000000     -50.00000000     -50.00000000     -50.00000000     -50.00000000     -50.00000000     -50.00000000     -50.00000000     -50.00000000     -50.00000000     -50.00000000     -50.00000000     -50.00000000     -50.00000000     -50.00000000
         -50.00000000     -50.00000000     -50.00000000     -50.00000000     -50.00000000     -50.00000000     -50.00000000     -50.00000000     -50.00000000     -50.00000000     -50.00000000     -50.00000000     -50.00000000     -50.00000000     -50.00000000     -50.00000000     -50.00000000     -50.00000000     -50.00000000     -50.00000000
         -50.00000000     -50.00000000     -50.00000000     -50.00000000     -50.00000000
         -51.46000000     -51.42000000     -51.38000000     -51.35000000     -51.33000000     -51.34000000     -51.34000000     -51.34000000     -51.29000000     -51.29000000     -51.33000000     -51.34000000     -51.32000000     -51.36000000     -51.34000000     -51.33000000     -51.32000000     -51.33000000     -51.36000000     -51.30000000
         -51.27000000     -51.25000000     -51.26000000     -51.17000000     -51.25000000     -51.22000000     -51.23000000     -51.29000000     -51.34000000     -51.34000000     -51.34000000     -51.34000000     -51.34000000     -51.36000000     -51.35000000     -51.38000000     -51.42000000     -51.32000000     -51.36000000     -51.34000000
         -51.37000000     -51.35000000     -51.30000000     -51.32000000     -51.31000000     -50.00000000     -50.00000000     -50.00000000     -50.00000000     -50.00000000     -50.00000000     -50.00000000     -50.00000000     -50.00000000     -50.00000000     -50.00000000     -50.00000000     -50.00000000     -50.00000000     -50.00000000
         -50.00000000     -50.00000000     -50.00000000     -50.00000000     -50.00000000     -50.00000000     -50.00000000     -50.00000000     -50.00000000     -50.00000000     -50.00000000     -50.00000000     -50.00000000     -50.00000000     -50.00000000     -50.00000000     -50.00000000     -50.00000000     -50.00000000     -50.00000000
         -50.00000000     -50.00000000     -50.00000000     -50.00000000     -50.00000000     -50.00000000     -50.00000000     -50.00000000     -50.00000000     -50.00000000     -50.00000000     -50.00000000     -50.00000000     -50.00000000     -50.00000000     -50.00000000     -50.00000000     -50.00000000     -50.00000000     -50.00000000
         -50.00000000     -50.00000000     -50.00000000     -50.00000000     -50.00000000     -50.00000000     -50.00000000     -50.00000000     -50.00000000     -50.00000000     -50.00000000     -50.00000000     -50.00000000     -50.00000000     -50.00000000     -50.00000000     -50.00000000     -50.00000000     -50.00000000     -50.00000000
         -50.00000000     -50.00000000     -50.00000000     -50.00000000     -50.00000000
         -51.43000000     -51.41000000     -51.35000000     -51.33000000     -51.33000000     -51.34000000     -51.33000000     -51.39000000     -51.33000000     -51.36000000     -51.40000000     -51.34000000     -51.43000000     -51.42000000     -51.34000000     -51.35000000     -51.38000000     -51.30000000     -51.29000000     -51.30000000
         -51.27000000     -51.29000000     -51.24000000     -51.25000000     -51.26000000     -51.22000000     -51.20000000     -51.24000000     -51.35000000     -51.36000000     -51.39000000     -51.37000000     -51.27000000     -51.27000000     -51.39000000     -51.41000000     -51.40000000     -51.40000000     -51.35000000     -51.33000000
         -51.33000000     -51.31000000     -51.27000000     -51.28000000     -51.30000000     -51.32000000     -51.29000000     -51.29000000     -51.32000000     -51.38000000     -51.44000000     -51.48000000     -51.42000000     -51.39000000     -51.39000000     -51.40000000     -51.33000000     -51.32000000     -50.00000000     -50.00000000
         -50.00000000     -50.00000000     -50.00000000     -50.00000000     -50.00000000     -50.00000000     -50.00000000     -50.00000000     -50.00000000     -50.00000000     -50.00000000     -50.00000000     -50.00000000     -50.00000000     -50.00000000     -50.00000000     -50.00000000     -50.00000000     -50.00000000     -50.00000000
         -50.00000000     -50.00000000     -50.00000000     -50.00000000     -50.00000000     -50.00000000     -50.00000000     -50.00000000     -50.00000000     -50.00000000     -50.00000000     -50.00000000     -50.00000000     -50.00000000     -50.00000000     -50.00000000     -50.00000000     -50.00000000     -50.00000000     -50.00000000
         -50.00000000     -50.00000000     -50.00000000     -50.00000000     -50.00000000     -50.00000000     -50.00000000     -50.00000000     -50.00000000     -50.00000000     -50.00000000     -50.00000000     -50.00000000     -50.00000000     -50.00000000     -50.00000000     -50.00000000     -50.00000000     -50.00000000     -50.00000000
         -50.00000000     -50.00000000     -50.00000000     -50.00000000     -50.00000000
         -51.37000000     -51.39000000     -51.37000000     -51.34000000     -51.32000000     -51.32000000     -51.35000000     -51.34000000     -51.38000000     -51.38000000     -51.37000000     -51.38000000     -51.42000000     -51.42000000     -51.39000000     -51.39000000     -51.31000000     -51.26000000     -51.28000000     -51.32000000
         -51.25000000     -51.29000000     -51.29000000     -51.27000000     -51.30000000     -51.26000000     -51.27000000     -51.29000000     -51.33000000     -51.37000000     -51.33000000     -51.30000000     -51.30000000     -51.30000000     -51.36000000     -51.37000000     -51.41000000     -51.43000000     -51.43000000     -51.32000000
         -51.32000000     -51.29000000     -51.31000000     -51.33000000     -51.29000000     -51.30000000     -51.31000000     -51.31000000     -51.31000000     -51.36000000     -51.42000000     -51.46000000     -51.45000000     -51.38000000     -51.37000000     -51.39000000     -51.33000000     -51.24000000     -51.25000000     -51.22000000
         -51.16000000     -51.14000000     -51.22000000     -51.15000000     -51.13000000     -51.13000000     -51.10000000     -51.09000000     -51.16000000     -51.17000000     -51.17000000     -51.12000000     -51.15000000     -51.22000000     -50.00000000     -50.00000000     -50.00000000     -50.00000000     -50.00000000     -50.00000000
         -50.00000000     -50.00000000     -50.00000000     -50.00000000     -50.00000000     -50.00000000     -50.00000000     -50.00000000     -50.00000000     -50.00000000     -50.00000000     -50.00000000     -50.00000000     -50.00000000     -50.00000000     -50.00000000     -50.00000000     -50.00000000     -50.00000000     -50.00000000
         -50.00000000     -50.00000000     -50.00000000     -50.00000000     -50.00000000     -50.00000000     -50.00000000     -50.00000000     -50.00000000     -50.00000000     -50.00000000     -50.00000000     -50.00000000     -50.00000000     -50.00000000     -50.00000000     -50.00000000     -50.00000000     -50.00000000     -50.00000000
         -50.00000000     -50.00000000     -50.00000000     -50.00000000     -50.00000000
         -51.33000000     -51.35000000     -51.34000000     -51.34000000     -51.30000000     -51.31000000     -51.33000000     -51.35000000     -51.39000000     -51.38000000     -51.38000000     -51.41000000     -51.39000000     -51.41000000     -51.39000000     -51.37000000     -51.31000000     -51.28000000     -51.25000000     -51.27000000
         -51.30000000     -51.28000000     -51.27000000     -51.28000000     -51.31000000     -51.32000000     -51.36000000     -51.33000000     -51.32000000     -51.30000000     -51.30000000     -51.30000000     -51.28000000     -51.25000000     -51.35000000     -51.39000000     -51.38000000     -51.42000000     -51.41000000     -51.36000000
         -51.29000000     -51.32000000     -51.32000000     -51.28000000     -51.30000000     -51.27000000     -51.30000000     -51.34000000     -51.32000000     -51.31000000     -51.38000000     -51.39000000     -51.41000000     -51.34000000     -51.35000000     -51.37000000     -51.28000000     -51.21000000     -51.20000000     -51.18000000
         -51.20000000     -51.22000000     -51.20000000     -51.14000000     -51.13000000     -51.06000000     -51.14000000     -51.13000000     -51.12000000     -51.17000000     -51.16000000     -51.12000000     -51.14000000     -51.21000000     -51.24000000     -51.30000000     -51.36000000     -51.36000000     -51.33000000     -51.33000000
         -50.00000000     -50.00000000     -50.00000000     -50.00000000     -50.00000000     -50.00000000     -50.00000000     -50.00000000     -50.00000000     -50.00000000     -50.00000000     -50.00000000     -50.00000000     -50.00000000     -50.00000000     -50.00000000     -50.00000000     -50.00000000     -50.00000000     -50.00000000
         -50.00000000     -50.00000000     -50.00000000     -50.00000000     -50.00000000     -50.00000000     -50.00000000     -50.00000000     -50.00000000     -50.00000000     -50.00000000     -50.00000000     -50.00000000     -50.00000000     -50.00000000     -50.00000000     -50.00000000     -50.00000000     -50.00000000     -50.00000000
         -50.00000000     -50.00000000     -50.00000000     -50.00000000     -50.00000000
         -51.34000000     -51.30000000     -51.37000000     -51.36000000     -51.34000000     -51.34000000     -51.34000000     -51.32000000     -51.37000000     -51.36000000     -51.34000000     -51.40000000     -51.37000000     -51.37000000     -51.37000000     -51.31000000     -51.32000000     -51.25000000     -51.22000000     -51.25000000
         -51.25000000     -51.29000000     -51.30000000     -51.33000000     -51.32000000     -51.37000000     -51.38000000     -51.35000000     -51.33000000     -51.32000000     -51.27000000     -51.27000000     -51.26000000     -51.27000000     -51.31000000     -51.37000000     -51.34000000     -51.32000000     -51.35000000     -51.39000000
         -51.40000000     -51.31000000     -51.31000000     -51.31000000     -51.30000000     -51.29000000     -51.29000000     -51.31000000     -51.29000000     -51.30000000     -51.36000000     -51.35000000     -51.32000000     -51.32000000     -51.32000000     -51.30000000     -51.24000000     -51.23000000     -51.17000000     -51.19000000
         -51.18000000     -51.16000000     -51.24000000     -51.12000000     -51.13000000     -51.14000000     -51.10000000     -51.10000000     -51.06000000     -51.15000000     -51.17000000     -51.15000000     -51.15000000     -51.20000000     -51.22000000     -51.27000000     -51.30000000     -51.35000000     -51.32000000     -51.31000000
         -51.27000000     -51.28000000     -51.28000000     -51.28000000     -50.00000000     -50.00000000     -50.00000000     -50.00000000     -50.00000000     -50.00000000     -50.00000000     -50.00000000     -50.00000000     -50.00000000     -50.00000000     -50.00000000     -50.00000000     -50.00000000     -50.00000000     -50.00000000
         -50.00000000     -50.00000000     -50.00000000     -50.00000000     -50.00000000     -50.00000000     -50.00000000     -50.00000000     -50.00000000     -50.00000000     -50.00000000     -50.00000000     -50.00000000     -50.00000000     -50.00000000     -50.00000000     -50.00000000     -50.00000000     -50.00000000     -50.00000000
         -50.00000000     -50.00000000     -50.00000000     -50.00000000     -50.00000000
         -51.34000000     -51.36000000     -51.30000000     -51.38000000     -51.43000000     -51.40000000     -51.38000000     -51.34000000     -51.40000000     -51.39000000     -51.41000000     -51.42000000     -51.44000000     -51.39000000     -51.35000000     -51.29000000     -51.29000000     -51.26000000     -51.25000000     -51.25000000
         -51.27000000     -51.31000000     -51.27000000     -51.31000000     -51.32000000     -51.34000000     -51.35000000     -51.37000000     -51.34000000     -51.31000000     -51.31000000     -51.22000000     -51.20000000     -51.24000000     -51.29000000     -51.29000000     -51.29000000     -51.31000000     -51.37000000     -51.35000000
         -51.35000000     -51.31000000     -51.31000000     -51.29000000     -51.30000000     -51.30000000     -51.30000000     -51.26000000     -51.31000000     -51.29000000     -51.29000000     -51.33000000     -51.28000000     -51.28000000     -51.24000000     -51.25000000     -51.18000000     -51.16000000     -51.18000000     -51.18000000
         -51.14000000     -51.13000000     -51.13000000     -51.08000000     -51.11000000     -51.12000000     -51.17000000     -51.08000000     -51.11000000     -51.12000000     -51.15000000     -51.19000000     -51.13000000     -51.17000000     -51.19000000     -51.26000000     -51.33000000     -51.27000000     -51.28000000     -51.29000000
         -51.25000000     -51.26000000     -51.27000000     -51.31000000     -51.34000000     -51.23000000     -51.20000000     -51.24000000     -51.22000000     -51.18000000     -50.00000000     -50.00000000     -50.00000000     -50.00000000     -50.00000000     -50.00000000     -50.00000000     -50.00000000     -50.00000000     -50.00000000
         -50.00000000     -50.00000000     -50.00000000     -50.00000000     -50.00000000     -50.00000000     -50.00000000     -50.00000000     -50.00000000     -50.00000000     -50.00000000     -50.00000000     -50.00000000     -50.00000000     -50.00000000     -50.00000000     -50.00000000     -50.00000000     -50.00000000     -50.00000000
         -50.00000000     -50.00000000     -50.00000000     -50.00000000     -50.00000000
         -51.33000000     -51.30000000     -51.34000000     -51.35000000     -51.39000000     -51.38000000     -51.43000000     -51.52000000     -51.43000000     -51.43000000     -51.48000000     -51.40000000     -51.43000000     -51.39000000     -51.33000000     -51.29000000     -51.29000000     -51.29000000     -51.25000000     -51.27000000
         -51.27000000     -51.30000000     -51.33000000     -51.30000000     -51.33000000     -51.34000000     -51.35000000     -51.35000000     -51.32000000     -51.32000000     -51.34000000     -51.31000000     -51.28000000     -51.24000000     -51.27000000     -51.27000000     -51.25000000     -51.27000000     -51.33000000     -51.30000000
         -51.32000000     -51.30000000     -51.20000000     -51.19000000     -51.22000000     -51.28000000     -51.28000000     -51.28000000     -51.32000000     -51.28000000     -51.27000000     -51.25000000     -51.24000000     -51.21000000     -51.23000000     -51.21000000     -51.15000000     -51.14000000     -51.12000000     -51.12000000
         -51.12000000     -51.12000000     -51.04000000     -51.06000000     -51.12000000     -51.13000000     -51.11000000     -51.07000000     -51.10000000     -51.09000000     -51.13000000     -51.15000000     -51.11000000     -51.20000000     -51.19000000     -51.28000000     -51.28000000     -51.26000000     -51.28000000     -51.25000000
         -51.29000000     -51.24000000     -51.23000000     -51.24000000     -51.24000000     -51.23000000     -51.25000000     -51.23000000     -51.23000000     -51.21000000     -51.18000000     -51.20000000     -51.18000000     -51.22000000     -51.22000000     -51.20000000     -50.00000000     -50.00000000     -50.00000000     -50.00000000
         -50.00000000     -50.00000000     -50.00000000     -50.00000000     -50.00000000     -50.00000000     -50.00000000     -50.00000000     -50.00000000     -50.00000000     -50.00000000     -50.00000000     -50.00000000     -50.00000000     -50.00000000     -50.00000000     -50.00000000     -50.00000000     -50.00000000     -50.00000000
         -50.00000000     -50.00000000     -50.00000000     -50.00000000     -50.00000000
         -51.28000000     -51.32000000     -51.33000000     -51.36000000     -51.39000000     -51.44000000     -51.47000000     -51.51000000     -51.48000000     -51.48000000     -51.46000000     -51.41000000     -51.39000000     -51.37000000     -51.32000000     -51.26000000     -51.27000000     -51.30000000     -51.29000000     -51.29000000
         -51.30000000     -51.28000000     -51.31000000     -51.35000000     -51.35000000     -51.31000000     -51.30000000     -51.34000000     -51.33000000     -51.34000000     -51.37000000     -51.37000000     -51.32000000     -51.32000000     -51.34000000     -51.28000000     -51.33000000     -51.32000000     -51.29000000     -51.32000000
         -51.28000000     -51.24000000     -51.24000000     -51.21000000     -51.26000000     -51.26000000     -51.26000000     -51.30000000     -51.30000000     -51.25000000     -51.26000000     -51.18000000     -51.20000000     -51.14000000     -51.17000000     -51.16000000     -51.11000000     -51.07000000     -51.03000000     -51.07000000
         -51.05000000     -51.09000000     -51.01000000     -51.03000000     -51.07000000     -51.11000000     -51.05000000     -51.06000000     -51.07000000     -51.11000000     -51.11000000     -51.13000000     -51.10000000     -51.19000000     -51.22000000     -51.26000000     -51.23000000     -51.21000000     -51.19000000     -51.20000000
         -51.22000000     -51.22000000     -51.20000000     -51.18000000     -51.19000000     -51.19000000     -51.25000000     -51.27000000     -51.24000000     -51.20000000     -51.18000000     -51.19000000     -51.14000000     -51.18000000     -51.18000000     -51.20000000     -51.21000000     -51.23000000     -51.25000000     -51.25000000
         -51.26000000     -51.25000000     -50.00000000     -50.00000000     -50.00000000     -50.00000000     -50.00000000     -50.00000000     -50.00000000     -50.00000000     -50.00000000     -50.00000000     -50.00000000     -50.00000000     -50.00000000     -50.00000000     -50.00000000     -50.00000000     -50.00000000     -50.00000000
         -50.00000000     -50.00000000     -50.00000000     -50.00000000     -50.00000000
         -51.25000000     -51.30000000     -51.32000000     -51.34000000     -51.44000000     -51.44000000     -51.47000000     -51.53000000     -51.44000000     -51.45000000     -51.47000000     -51.42000000     -51.40000000     -51.32000000     -51.30000000     -51.27000000     -51.31000000     -51.29000000     -51.32000000     -51.32000000
         -51.31000000     -51.31000000     -51.33000000     -51.37000000     -51.32000000     -51.29000000     -51.31000000     -51.31000000     -51.28000000     -51.33000000     -51.36000000     -51.33000000     -51.39000000     -51.37000000     -51.38000000     -51.35000000     -51.35000000     -51.31000000     -51.33000000     -51.28000000
         -51.25000000     -51.25000000     -51.23000000     -51.27000000     -51.27000000     -51.28000000     -51.27000000     -51.24000000     -51.27000000     -51.25000000     -51.18000000     -51.20000000     -51.16000000     -51.16000000     -51.14000000     -51.14000000     -51.11000000     -51.07000000     -51.05000000     -51.04000000
         -51.05000000     -51.05000000     -51.03000000     -51.04000000     -50.99000000     -51.06000000     -51.07000000     -51.09000000     -51.03000000     -51.06000000     -51.05000000     -51.08000000     -51.09000000     -51.08000000     -51.14000000     -51.16000000     -51.15000000     -51.17000000     -51.18000000     -51.20000000
         -51.17000000     -51.15000000     -51.18000000     -51.20000000     -51.14000000     -51.14000000     -51.21000000     -51.27000000     -51.24000000     -51.19000000     -51.19000000     -51.13000000     -51.10000000     -51.16000000     -51.19000000     -51.20000000     -51.18000000     -51.20000000     -51.25000000     -51.24000000
         -51.20000000     -51.22000000     -51.20000000     -51.18000000     -51.25000000     -51.30000000     -51.29000000     -51.35000000     -50.00000000     -50.00000000     -50.00000000     -50.00000000     -50.00000000     -50.00000000     -50.00000000     -50.00000000     -50.00000000     -50.00000000     -50.00000000     -50.00000000
         -50.00000000     -50.00000000     -50.00000000     -50.00000000     -50.00000000
         -51.24000000     -51.25000000     -51.31000000     -51.39000000     -51.38000000     -51.43000000     -51.50000000     -51.46000000     -51.42000000     -51.41000000     -51.44000000     -51.36000000     -51.34000000     -51.28000000     -51.31000000     -51.30000000     -51.36000000     -51.37000000     -51.34000000     -51.33000000
         -51.35000000     -51.35000000     -51.35000000     -51.33000000     -51.32000000     -51.29000000     -51.27000000     -51.29000000     -51.29000000     -51.30000000     -51.35000000     -51.36000000     -51.36000000     -51.37000000     -51.36000000     -51.38000000     -51.33000000     -51.29000000     -51.27000000     -51.26000000
         -51.25000000     -51.28000000     -51.24000000     -51.24000000     -51.26000000     -51.25000000     -51.25000000     -51.24000000     -51.18000000     -51.23000000     -51.21000000     -51.18000000     -51.17000000     -51.19000000     -51.18000000     -51.08000000     -51.11000000     -51.08000000     -51.05000000     -51.01000000
         -51.05000000     -51.05000000     -51.03000000     -51.03000000     -51.01000000     -51.04000000     -51.11000000     -51.09000000     -51.05000000     -51.07000000     -51.01000000     -51.01000000     -51.09000000     -51.10000000     -51.11000000     -51.09000000     -51.10000000     -51.11000000     -51.09000000     -51.15000000
         -51.16000000     -51.12000000     -51.16000000     -51.15000000     -51.09000000     -51.10000000     -51.17000000     -51.21000000     -51.17000000     -51.14000000     -51.13000000     -51.08000000     -51.13000000     -51.13000000     -51.15000000     -51.16000000     -51.15000000     -51.21000000     -51.26000000     -51.21000000
         -51.23000000     -51.27000000     -51.25000000     -51.21000000     -51.25000000     -51.25000000     -51.26000000     -51.32000000     -51.33000000     -51.32000000     -51.27000000     -51.31000000     -50.00000000     -50.00000000     -50.00000000     -50.00000000     -50.00000000     -50.00000000     -50.00000000     -50.00000000
         -50.00000000     -50.00000000     -50.00000000     -50.00000000     -50.00000000
         -51.27000000     -51.24000000     -51.38000000     -51.39000000     -51.37000000     -51.46000000     -51.47000000     -51.46000000     -51.40000000     -51.43000000     -51.41000000     -51.36000000     -51.33000000     -51.29000000     -51.35000000     -51.39000000     -51.35000000     -51.38000000     -51.41000000     -51.40000000
         -51.36000000     -51.37000000     -51.34000000     -51.34000000     -51.34000000     -51.28000000     -51.29000000     -51.28000000     -51.31000000     -51.27000000     -51.32000000     -51.33000000     -51.30000000     -51.29000000     -51.33000000     -51.37000000     -51.32000000     -51.33000000     -51.25000000     -51.24000000
         -51.27000000     -51.22000000     -51.26000000     -51.25000000     -51.27000000     -51.24000000     -51.21000000     -51.23000000     -51.19000000     -51.17000000     -51.17000000     -51.16000000     -51.22000000     -51.19000000     -51.15000000     -51.08000000     -51.12000000     -50.99000000     -50.99000000     -50.98000000
         -50.99000000     -51.02000000     -51.06000000     -51.07000000     -51.04000000     -51.03000000     -51.06000000     -51.06000000     -51.08000000     -51.09000000     -51.00000000     -51.02000000     -51.11000000     -51.06000000     -51.09000000     -51.07000000     -51.06000000     -51.05000000     -51.06000000     -51.11000000
         -51.14000000     -51.12000000     -51.12000000     -51.13000000     -51.09000000     -51.13000000     -51.20000000     -51.22000000     -51.18000000     -51.09000000     -51.13000000     -51.09000000     -51.16000000     -51.11000000     -51.11000000     -51.10000000     -51.14000000     -51.15000000     -51.24000000     -51.29000000
         -51.29000000     -51.26000000     -51.26000000     -51.18000000     -51.19000000     -51.22000000     -51.30000000     -51.31000000     -51.32000000     -51.28000000     -51.29000000     -51.27000000     -51.27000000     -51.32000000     -51.27000000     -51.19000000     -50.00000000     -50.00000000     -50.00000000     -50.00000000
         -50.00000000     -50.00000000     -50.00000000     -50.00000000     -50.00000000
         -51.30000000     -51.28000000     -51.35000000     -51.38000000     -51.35000000     -51.40000000     -51.45000000     -51.47000000     -51.40000000     -51.42000000     -51.41000000     -51.46000000     -51.46000000     -51.41000000     -51.36000000     -51.38000000     -51.42000000     -51.44000000     -51.44000000     -51.41000000
         -51.43000000     -51.34000000     -51.32000000     -51.37000000     -51.33000000     -51.34000000     -51.30000000     -51.35000000     -51.31000000     -51.25000000     -51.28000000     -51.32000000     -51.32000000     -51.28000000     -51.30000000     -51.32000000     -51.32000000     -51.30000000     -51.23000000     -51.23000000
         -51.23000000     -51.22000000     -51.27000000     -51.24000000     -51.25000000     -51.22000000     -51.23000000     -51.18000000     -51.21000000     -51.17000000     -51.16000000     -51.16000000     -51.16000000     -51.14000000     -51.12000000     -51.03000000     -51.02000000     -51.00000000     -51.00000000     -50.95000000
         -50.98000000     -51.03000000     -51.06000000     -51.04000000     -50.97000000     -51.01000000     -51.05000000     -51.01000000     -51.04000000     -51.03000000     -51.06000000     -51.10000000     -51.07000000     -51.08000000     -51.04000000     -51.00000000     -51.01000000     -51.05000000     -51.08000000     -51.03000000
         -51.07000000     -51.09000000     -51.07000000     -51.13000000     -51.12000000     -51.12000000     -51.18000000     -51.22000000     -51.21000000     -51.14000000     -51.12000000     -51.09000000     -51.09000000     -51.11000000     -51.13000000     -51.18000000     -51.19000000     -51.17000000     -51.23000000     -51.29000000
         -51.26000000     -51.25000000     -51.22000000     -51.21000000     -51.21000000     -51.26000000     -51.33000000     -51.31000000     -51.30000000     -51.31000000     -51.24000000     -51.17000000     -51.19000000     -51.25000000     -51.22000000     -51.18000000     -51.19000000     -51.18000000     -50.00000000     -50.00000000
         -50.00000000     -50.00000000     -50.00000000     -50.00000000     -50.00000000
         -51.33000000     -51.33000000     -51.35000000     -51.36000000     -51.37000000     -51.38000000     -51.41000000     -51.44000000     -51.40000000     -51.44000000     -51.43000000     -51.46000000     -51.46000000     -51.43000000     -51.42000000     -51.45000000     -51.43000000     -51.44000000     -51.44000000     -51.41000000
         -51.43000000     -51.40000000     -51.35000000     -51.36000000     -51.34000000     -51.39000000     -51.37000000     -51.35000000     -51.36000000     -51.31000000     -51.34000000     -51.30000000     -51.29000000     -51.30000000     -51.31000000     -51.35000000     -51.30000000     -51.32000000     -51.26000000     -51.24000000
         -51.25000000     -51.22000000     -51.24000000     -51.22000000     -51.20000000     -51.19000000     -51.22000000     -51.16000000     -51.15000000     -51.14000000     -51.13000000     -51.16000000     -51.14000000     -51.10000000     -51.03000000     -50.99000000     -51.03000000     -51.00000000     -50.97000000     -51.01000000
         -51.04000000     -51.00000000     -51.01000000     -51.03000000     -50.96000000     -50.98000000     -51.00000000     -50.99000000     -51.00000000     -51.03000000     -51.06000000     -51.10000000     -51.12000000     -51.06000000     -51.01000000     -51.02000000     -50.98000000     -51.02000000     -51.03000000     -51.00000000