# File generated by Flopy version 3.3.6 on 12/23/2022 at 11:08:39.
BEGIN options
  SAVE_SPECIFIC_DISCHARGE
END options

BEGIN griddata
  icelltype  LAYERED
    CONSTANT  1
    CONSTANT  0
    CONSTANT  0
  k  LAYERED
    CONSTANT      50.00000000
    CONSTANT       0.01000000
    CONSTANT     200.00000000
  k33  LAYERED
    CONSTANT      10.00000000
    CONSTANT       0.01000000
    CONSTANT      20.00000000
END griddata

