# File generated by Flopy version 3.3.6 on 12/23/2022 at 11:08:39.
BEGIN options
END options

BEGIN dimensions
  NPER  1
END dimensions

BEGIN perioddata
       1.00000000  1       1.00000000
END perioddata

