# File generated by Flopy version 3.3.6 on 12/23/2022 at 11:08:39.
BEGIN options
  SAVE_FLOWS
END options

BEGIN packages
  DIS6  ex05.dis  dis
  IC6  ex05.ic  ic
  NPF6  ex05.npf  npf
  RCH6  ex05.rcha  rcha_0
  RIV6  ex05.riv  riv_0
  OC6  ex05.oc  oc
END packages

