# File generated by Flopy version 3.3.6 on 12/23/2022 at 11:08:39.
BEGIN options
  PRINT_INPUT
END options

BEGIN dimensions
  MAXBOUND  1
END dimensions

BEGIN period  1
  3 11 10  -1.50000000E+05
END period  1

