# File generated by Flopy version 3.3.6 on 12/23/2022 at 11:08:39.
BEGIN options
  auxiliary  angldegx  cdist
END options

BEGIN dimensions
  NEXG  234
END dimensions

BEGIN exchangedata
  1 8 8  1 1 4  1     250.00000000      83.33333333     166.66666667       0.00000000     372.67799625
  1 7 9  1 1 4  1     250.00000000      83.33333333     166.66666667     270.00000000     372.67799625
  1 7 9  1 1 5  1     250.00000000      83.33333333     166.66666667     270.00000000     333.33333333
  1 7 9  1 1 6  1     250.00000000      83.33333333     166.66666667     270.00000000     372.67799625
  1 7 10  1 1 7  1     250.00000000      83.33333333     166.66666667     270.00000000     372.67799625
  1 7 10  1 1 8  1     250.00000000      83.33333333     166.66666667     270.00000000     333.33333333
  1 8 11  1 1 9  1     250.00000000      83.33333333     166.66666667     180.00000000     372.67799625
  1 7 10  1 1 9  1     250.00000000      83.33333333     166.66666667     270.00000000     372.67799625
  1 8 8  1 2 4  1     250.00000000      83.33333333     166.66666667       0.00000000     333.33333333
  1 8 11  1 2 9  1     250.00000000      83.33333333     166.66666667     180.00000000     333.33333333
  1 8 8  1 3 4  1     250.00000000      83.33333333     166.66666667       0.00000000     372.67799625
  1 8 11  1 3 9  1     250.00000000      83.33333333     166.66666667     180.00000000     372.67799625
  1 9 7  1 4 1  1     250.00000000      83.33333333     166.66666667       0.00000000     372.67799625
  1 8 8  1 4 1  1     250.00000000      83.33333333     166.66666667     270.00000000     372.67799625
  1 8 8  1 4 2  1     250.00000000      83.33333333     166.66666667     270.00000000     333.33333333
  1 8 8  1 4 3  1     250.00000000      83.33333333     166.66666667     270.00000000     372.67799625
  1 8 11  1 4 10  1     250.00000000      83.33333333     166.66666667     270.00000000     372.67799625
  1 8 11  1 4 11  1     250.00000000      83.33333333     166.66666667     270.00000000     333.33333333
  1 8 11  1 4 12  1     250.00000000      83.33333333     166.66666667     270.00000000     372.67799625
  1 8 12  1 4 13  1     250.00000000      83.33333333     166.66666667     270.00000000     372.67799625
  1 8 12  1 4 14  1     250.00000000      83.33333333     166.66666667     270.00000000     333.33333333
  1 8 12  1 4 15  1     250.00000000      83.33333333     166.66666667     270.00000000     372.67799625
  1 8 13  1 4 16  1     250.00000000      83.33333333     166.66666667     270.00000000     372.67799625
  1 8 13  1 4 17  1     250.00000000      83.33333333     166.66666667     270.00000000     333.33333333
  1 9 14  1 4 18  1     250.00000000      83.33333333     166.66666667     180.00000000     372.67799625
  1 8 13  1 4 18  1     250.00000000      83.33333333     166.66666667     270.00000000     372.67799625
  1 9 7  1 5 1  1     250.00000000      83.33333333     166.66666667       0.00000000     333.33333333
  1 9 14  1 5 18  1     250.00000000      83.33333333     166.66666667     180.00000000     333.33333333
  1 9 7  1 6 1  1     250.00000000      83.33333333     166.66666667       0.00000000     372.67799625
  1 9 14  1 6 18  1     250.00000000      83.33333333     166.66666667     180.00000000     372.67799625
  1 10 7  1 7 1  1     250.00000000      83.33333333     166.66666667       0.00000000     372.67799625
  1 10 14  1 7 18  1     250.00000000      83.33333333     166.66666667     180.00000000     372.67799625
  1 10 7  1 8 1  1     250.00000000      83.33333333     166.66666667       0.00000000     333.33333333
  1 10 14  1 8 18  1     250.00000000      83.33333333     166.66666667     180.00000000     333.33333333
  1 10 7  1 9 1  1     250.00000000      83.33333333     166.66666667       0.00000000     372.67799625
  1 10 14  1 9 18  1     250.00000000      83.33333333     166.66666667     180.00000000     372.67799625
  1 11 7  1 10 1  1     250.00000000      83.33333333     166.66666667       0.00000000     372.67799625
  1 11 14  1 10 18  1     250.00000000      83.33333333     166.66666667     180.00000000     372.67799625
  1 11 7  1 11 1  1     250.00000000      83.33333333     166.66666667       0.00000000     333.33333333
  1 11 14  1 11 18  1     250.00000000      83.33333333     166.66666667     180.00000000     333.33333333
  1 11 7  1 12 1  1     250.00000000      83.33333333     166.66666667       0.00000000     372.67799625
  1 11 14  1 12 18  1     250.00000000      83.33333333     166.66666667     180.00000000     372.67799625
  1 12 7  1 13 1  1     250.00000000      83.33333333     166.66666667       0.00000000     372.67799625
  1 12 14  1 13 18  1     250.00000000      83.33333333     166.66666667     180.00000000     372.67799625
  1 12 7  1 14 1  1     250.00000000      83.33333333     166.66666667       0.00000000     333.33333333
  1 12 14  1 14 18  1     250.00000000      83.33333333     166.66666667     180.00000000     333.33333333
  1 12 7  1 15 1  1     250.00000000      83.33333333     166.66666667       0.00000000     372.67799625
  1 12 14  1 15 18  1     250.00000000      83.33333333     166.66666667     180.00000000     372.67799625
  1 13 7  1 16 1  1     250.00000000      83.33333333     166.66666667       0.00000000     372.67799625
  1 13 14  1 16 18  1     250.00000000      83.33333333     166.66666667     180.00000000     372.67799625
  1 13 7  1 17 1  1     250.00000000      83.33333333     166.66666667       0.00000000     333.33333333
  1 13 14  1 17 18  1     250.00000000      83.33333333     166.66666667     180.00000000     333.33333333
  1 13 7  1 18 1  1     250.00000000      83.33333333     166.66666667       0.00000000     372.67799625
  1 13 14  1 18 18  1     250.00000000      83.33333333     166.66666667     180.00000000     372.67799625
  1 14 7  1 19 1  1     250.00000000      83.33333333     166.66666667       0.00000000     372.67799625
  1 14 14  1 19 18  1     250.00000000      83.33333333     166.66666667     180.00000000     372.67799625
  1 14 7  1 20 1  1     250.00000000      83.33333333     166.66666667       0.00000000     333.33333333
  1 14 14  1 20 18  1     250.00000000      83.33333333     166.66666667     180.00000000     333.33333333
  1 14 7  1 21 1  1     250.00000000      83.33333333     166.66666667       0.00000000     372.67799625
  1 15 8  1 21 1  1     250.00000000      83.33333333     166.66666667      90.00000000     372.67799625
  1 15 8  1 21 2  1     250.00000000      83.33333333     166.66666667      90.00000000     333.33333333
  1 15 8  1 21 3  1     250.00000000      83.33333333     166.66666667      90.00000000     372.67799625
  1 15 9  1 21 4  1     250.00000000      83.33333333     166.66666667      90.00000000     372.67799625
  1 15 9  1 21 5  1     250.00000000      83.33333333     166.66666667      90.00000000     333.33333333
  1 15 9  1 21 6  1     250.00000000      83.33333333     166.66666667      90.00000000     372.67799625
  1 15 10  1 21 7  1     250.00000000      83.33333333     166.66666667      90.00000000     372.67799625
  1 15 10  1 21 8  1     250.00000000      83.33333333     166.66666667      90.00000000     333.33333333
  1 15 10  1 21 9  1     250.00000000      83.33333333     166.66666667      90.00000000     372.67799625
  1 15 11  1 21 10  1     250.00000000      83.33333333     166.66666667      90.00000000     372.67799625
  1 15 11  1 21 11  1     250.00000000      83.33333333     166.66666667      90.00000000     333.33333333
  1 15 11  1 21 12  1     250.00000000      83.33333333     166.66666667      90.00000000     372.67799625
  1 15 12  1 21 13  1     250.00000000      83.33333333     166.66666667      90.00000000     372.67799625
  1 15 12  1 21 14  1     250.00000000      83.33333333     166.66666667      90.00000000     333.33333333
  1 15 12  1 21 15  1     250.00000000      83.33333333     166.66666667      90.00000000     372.67799625
  1 15 13  1 21 16  1     250.00000000      83.33333333     166.66666667      90.00000000     372.67799625
  1 15 13  1 21 17  1     250.00000000      83.33333333     166.66666667      90.00000000     333.33333333
  1 14 14  1 21 18  1     250.00000000      83.33333333     166.66666667     180.00000000     372.67799625
  1 15 13  1 21 18  1     250.00000000      83.33333333     166.66666667      90.00000000     372.67799625
  2 8 8  2 1 4  1     250.00000000      83.33333333     166.66666667       0.00000000     372.67799625
  2 7 9  2 1 4  1     250.00000000      83.33333333     166.66666667     270.00000000     372.67799625
  2 7 9  2 1 5  1     250.00000000      83.33333333     166.66666667     270.00000000     333.33333333
  2 7 9  2 1 6  1     250.00000000      83.33333333     166.66666667     270.00000000     372.67799625
  2 7 10  2 1 7  1     250.00000000      83.33333333     166.66666667     270.00000000     372.67799625
  2 7 10  2 1 8  1     250.00000000      83.33333333     166.66666667     270.00000000     333.33333333
  2 8 11  2 1 9  1     250.00000000      83.33333333     166.66666667     180.00000000     372.67799625
  2 7 10  2 1 9  1     250.00000000      83.33333333     166.66666667     270.00000000     372.67799625
  2 8 8  2 2 4  1     250.00000000      83.33333333     166.66666667       0.00000000     333.33333333
  2 8 11  2 2 9  1     250.00000000      83.33333333     166.66666667     180.00000000     333.33333333
  2 8 8  2 3 4  1     250.00000000      83.33333333     166.66666667       0.00000000     372.67799625
  2 8 11  2 3 9  1     250.00000000      83.33333333     166.66666667     180.00000000     372.67799625
  2 9 7  2 4 1  1     250.00000000      83.33333333     166.66666667       0.00000000     372.67799625
  2 8 8  2 4 1  1     250.00000000      83.33333333     166.66666667     270.00000000     372.67799625
  2 8 8  2 4 2  1     250.00000000      83.33333333     166.66666667     270.00000000     333.33333333
  2 8 8  2 4 3  1     250.00000000      83.33333333     166.66666667     270.00000000     372.67799625
  2 8 11  2 4 10  1     250.00000000      83.33333333     166.66666667     270.00000000     372.67799625
  2 8 11  2 4 11  1     250.00000000      83.33333333     166.66666667     270.00000000     333.33333333
  2 8 11  2 4 12  1     250.00000000      83.33333333     166.66666667     270.00000000     372.67799625
  2 8 12  2 4 13  1     250.00000000      83.33333333     166.66666667     270.00000000     372.67799625
  2 8 12  2 4 14  1     250.00000000      83.33333333     166.66666667     270.00000000     333.33333333
  2 8 12  2 4 15  1     250.00000000      83.33333333     166.66666667     270.00000000     372.67799625
  2 8 13  2 4 16  1     250.00000000      83.33333333     166.66666667     270.00000000     372.67799625
  2 8 13  2 4 17  1     250.00000000      83.33333333     166.66666667     270.00000000     333.33333333
  2 9 14  2 4 18  1     250.00000000      83.33333333     166.66666667     180.00000000     372.67799625
  2 8 13  2 4 18  1     250.00000000      83.33333333     166.66666667     270.00000000     372.67799625
  2 9 7  2 5 1  1     250.00000000      83.33333333     166.66666667       0.00000000     333.33333333
  2 9 14  2 5 18  1     250.00000000      83.33333333     166.66666667     180.00000000     333.33333333
  2 9 7  2 6 1  1     250.00000000      83.33333333     166.66666667       0.00000000     372.67799625
  2 9 14  2 6 18  1     250.00000000      83.33333333     166.66666667     180.00000000     372.67799625
  2 10 7  2 7 1  1     250.00000000      83.33333333     166.66666667       0.00000000     372.67799625
  2 10 14  2 7 18  1     250.00000000      83.33333333     166.66666667     180.00000000     372.67799625
  2 10 7  2 8 1  1     250.00000000      83.33333333     166.66666667       0.00000000     333.33333333
  2 10 14  2 8 18  1     250.00000000      83.33333333     166.66666667     180.00000000     333.33333333
  2 10 7  2 9 1  1     250.00000000      83.33333333     166.66666667       0.00000000     372.67799625
  2 10 14  2 9 18  1     250.00000000      83.33333333     166.66666667     180.00000000     372.67799625
  2 11 7  2 10 1  1     250.00000000      83.33333333     166.66666667       0.00000000     372.67799625
  2 11 14  2 10 18  1     250.00000000      83.33333333     166.66666667     180.00000000     372.67799625
  2 11 7  2 11 1  1     250.00000000      83.33333333     166.66666667       0.00000000     333.33333333
  2 11 14  2 11 18  1     250.00000000      83.33333333     166.66666667     180.00000000     333.33333333
  2 11 7  2 12 1  1     250.00000000      83.33333333     166.66666667       0.00000000     372.67799625
  2 11 14  2 12 18  1     250.00000000      83.33333333     166.66666667     180.00000000     372.67799625
  2 12 7  2 13 1  1     250.00000000      83.33333333     166.66666667       0.00000000     372.67799625
  2 12 14  2 13 18  1     250.00000000      83.33333333     166.66666667     180.00000000     372.67799625
  2 12 7  2 14 1  1     250.00000000      83.33333333     166.66666667       0.00000000     333.33333333
  2 12 14  2 14 18  1     250.00000000      83.33333333     166.66666667     180.00000000     333.33333333
  2 12 7  2 15 1  1     250.00000000      83.33333333     166.66666667       0.00000000     372.67799625
  2 12 14  2 15 18  1     250.00000000      83.33333333     166.66666667     180.00000000     372.67799625
  2 13 7  2 16 1  1     250.00000000      83.33333333     166.66666667       0.00000000     372.67799625
  2 13 14  2 16 18  1     250.00000000      83.33333333     166.66666667     180.00000000     372.67799625
  2 13 7  2 17 1  1     250.00000000      83.33333333     166.66666667       0.00000000     333.33333333
  2 13 14  2 17 18  1     250.00000000      83.33333333     166.66666667     180.00000000     333.33333333
  2 13 7  2 18 1  1     250.00000000      83.33333333     166.66666667       0.00000000     372.67799625
  2 13 14  2 18 18  1     250.00000000      83.33333333     166.66666667     180.00000000     372.67799625
  2 14 7  2 19 1  1     250.00000000      83.33333333     166.66666667       0.00000000     372.67799625
  2 14 14  2 19 18  1     250.00000000      83.33333333     166.66666667     180.00000000     372.67799625
  2 14 7  2 20 1  1     250.00000000      83.33333333     166.66666667       0.00000000     333.33333333
  2 14 14  2 20 18  1     250.00000000      83.33333333     166.66666667     180.00000000     333.33333333
  2 14 7  2 21 1  1     250.00000000      83.33333333     166.66666667       0.00000000     372.67799625
  2 15 8  2 21 1  1     250.00000000      83.33333333     166.66666667      90.00000000     372.67799625
  2 15 8  2 21 2  1     250.00000000      83.33333333     166.66666667      90.00000000     333.33333333
  2 15 8  2 21 3  1     250.00000000      83.33333333     166.66666667      90.00000000     372.67799625
  2 15 9  2 21 4  1     250.00000000      83.33333333     166.66666667      90.00000000     372.67799625
  2 15 9  2 21 5  1     250.00000000      83.33333333     166.66666667      90.00000000     333.33333333
  2 15 9  2 21 6  1     250.00000000      83.33333333     166.66666667      90.00000000     372.67799625
  2 15 10  2 21 7  1     250.00000000      83.33333333     166.66666667      90.00000000     372.67799625
  2 15 10  2 21 8  1     250.00000000      83.33333333     166.66666667      90.00000000     333.33333333
  2 15 10  2 21 9  1     250.00000000      83.33333333     166.66666667      90.00000000     372.67799625
  2 15 11  2 21 10  1     250.00000000      83.33333333     166.66666667      90.00000000     372.67799625
  2 15 11  2 21 11  1     250.00000000      83.33333333     166.66666667      90.00000000     333.33333333
  2 15 11  2 21 12  1     250.00000000      83.33333333     166.66666667      90.00000000     372.67799625
  2 15 12  2 21 13  1     250.00000000      83.33333333     166.66666667      90.00000000     372.67799625
  2 15 12  2 21 14  1     250.00000000      83.33333333     166.66666667      90.00000000     333.33333333
  2 15 12  2 21 15  1     250.00000000      83.33333333     166.66666667      90.00000000     372.67799625
  2 15 13  2 21 16  1     250.00000000      83.33333333     166.66666667      90.00000000     372.67799625
  2 15 13  2 21 17  1     250.00000000      83.33333333     166.66666667      90.00000000     333.33333333
  2 14 14  2 21 18  1     250.00000000      83.33333333     166.66666667     180.00000000     372.67799625
  2 15 13  2 21 18  1     250.00000000      83.33333333     166.66666667      90.00000000     372.67799625
  3 8 8  3 1 4  1     250.00000000      83.33333333     166.66666667       0.00000000     372.67799625
  3 7 9  3 1 4  1     250.00000000      83.33333333     166.66666667     270.00000000     372.67799625
  3 7 9  3 1 5  1     250.00000000      83.33333333     166.66666667     270.00000000     333.33333333
  3 7 9  3 1 6  1     250.00000000      83.33333333     166.66666667     270.00000000     372.67799625
  3 7 10  3 1 7  1     250.00000000      83.33333333     166.66666667     270.00000000     372.67799625
  3 7 10  3 1 8  1     250.00000000      83.33333333     166.66666667     270.00000000     333.33333333
  3 8 11  3 1 9  1     250.00000000      83.33333333     166.66666667     180.00000000     372.67799625
  3 7 10  3 1 9  1     250.00000000      83.33333333     166.66666667     270.00000000     372.67799625
  3 8 8  3 2 4  1     250.00000000      83.33333333     166.66666667       0.00000000     333.33333333
  3 8 11  3 2 9  1     250.00000000      83.33333333     166.66666667     180.00000000     333.33333333
  3 8 8  3 3 4  1     250.00000000      83.33333333     166.66666667       0.00000000     372.67799625
  3 8 11  3 3 9  1     250.00000000      83.33333333     166.66666667     180.00000000     372.67799625
  3 9 7  3 4 1  1     250.00000000      83.33333333     166.66666667       0.00000000     372.67799625
  3 8 8  3 4 1  1     250.00000000      83.33333333     166.66666667     270.00000000     372.67799625
  3 8 8  3 4 2  1     250.00000000      83.33333333     166.66666667     270.00000000     333.33333333
  3 8 8  3 4 3  1     250.00000000      83.33333333     166.66666667     270.00000000     372.67799625
  3 8 11  3 4 10  1     250.00000000      83.33333333     166.66666667     270.00000000     372.67799625
  3 8 11  3 4 11  1     250.00000000      83.33333333     166.66666667     270.00000000     333.33333333
  3 8 11  3 4 12  1     250.00000000      83.33333333     166.66666667     270.00000000     372.67799625
  3 8 12  3 4 13  1     250.00000000      83.33333333     166.66666667     270.00000000     372.67799625
  3 8 12  3 4 14  1     250.00000000      83.33333333     166.66666667     270.00000000     333.33333333
  3 8 12  3 4 15  1     250.00000000      83.33333333     166.66666667     270.00000000     372.67799625
  3 8 13  3 4 16  1     250.00000000      83.33333333     166.66666667     270.00000000     372.67799625
  3 8 13  3 4 17  1     250.00000000      83.33333333     166.66666667     270.00000000     333.33333333
  3 9 14  3 4 18  1     250.00000000      83.33333333     166.66666667     180.00000000     372.67799625
  3 8 13  3 4 18  1     250.00000000      83.33333333     166.66666667     270.00000000     372.67799625
  3 9 7  3 5 1  1     250.00000000      83.33333333     166.66666667       0.00000000     333.33333333
  3 9 14  3 5 18  1     250.00000000      83.33333333     166.66666667     180.00000000     333.33333333
  3 9 7  3 6 1  1     250.00000000      83.33333333     166.66666667       0.00000000     372.67799625
  3 9 14  3 6 18  1     250.00000000      83.33333333     166.66666667     180.00000000     372.67799625
  3 10 7  3 7 1  1     250.00000000      83.33333333     166.66666667       0.00000000     372.67799625
  3 10 14  3 7 18  1     250.00000000      83.33333333     166.66666667     180.00000000     372.67799625
  3 10 7  3 8 1  1     250.00000000      83.33333333     166.66666667       0.00000000     333.33333333
  3 10 14  3 8 18  1     250.00000000      83.33333333     166.66666667     180.00000000     333.33333333
  3 10 7  3 9 1  1     250.00000000      83.33333333     166.66666667       0.00000000     372.67799625
  3 10 14  3 9 18  1     250.00000000      83.33333333     166.66666667     180.00000000     372.67799625
  3 11 7  3 10 1  1     250.00000000      83.33333333     166.66666667       0.00000000     372.67799625
  3 11 14  3 10 18  1     250.00000000      83.33333333     166.66666667     180.00000000     372.67799625
  3 11 7  3 11 1  1     250.00000000      83.33333333     166.66666667       0.00000000     333.33333333
  3 11 14  3 11 18  1     250.00000000      83.33333333     166.66666667     180.00000000     333.33333333
  3 11 7  3 12 1  1     250.00000000      83.33333333     166.66666667       0.00000000     372.67799625
  3 11 14  3 12 18  1     250.00000000      83.33333333     166.66666667     180.00000000     372.67799625
  3 12 7  3 13 1  1     250.00000000      83.33333333     166.66666667       0.00000000     372.67799625
  3 12 14  3 13 18  1     250.00000000      83.33333333     166.66666667     180.00000000     372.67799625
  3 12 7  3 14 1  1     250.00000000      83.33333333     166.66666667       0.00000000     333.33333333
  3 12 14  3 14 18  1     250.00000000      83.33333333     166.66666667     180.00000000     333.33333333
  3 12 7  3 15 1  1     250.00000000      83.33333333     166.66666667       0.00000000     372.67799625
  3 12 14  3 15 18  1     250.00000000      83.33333333     166.66666667     180.00000000     372.67799625
  3 13 7  3 16 1  1     250.00000000      83.33333333     166.66666667       0.00000000     372.67799625
  3 13 14  3 16 18  1     250.00000000      83.33333333     166.66666667     180.00000000     372.67799625
  3 13 7  3 17 1  1     250.00000000      83.33333333     166.66666667       0.00000000     333.33333333
  3 13 14  3 17 18  1     250.00000000      83.33333333     166.66666667     180.00000000     333.33333333
  3 13 7  3 18 1  1     250.00000000      83.33333333     166.66666667       0.00000000     372.67799625
  3 13 14  3 18 18  1     250.00000000      83.33333333     166.66666667     180.00000000     372.67799625
  3 14 7  3 19 1  1     250.00000000      83.33333333     166.66666667       0.00000000     372.67799625
  3 14 14  3 19 18  1     250.00000000      83.33333333     166.66666667     180.00000000     372.67799625
  3 14 7  3 20 1  1     250.00000000      83.33333333     166.66666667       0.00000000     333.33333333
  3 14 14  3 20 18  1     250.00000000      83.33333333     166.66666667     180.00000000     333.33333333
  3 14 7  3 21 1  1     250.00000000      83.33333333     166.66666667       0.00000000     372.67799625
  3 15 8  3 21 1  1     250.00000000      83.33333333     166.66666667      90.00000000     372.67799625
  3 15 8  3 21 2  1     250.00000000      83.33333333     166.66666667      90.00000000     333.33333333
  3 15 8  3 21 3  1     250.00000000      83.33333333     166.66666667      90.00000000     372.67799625
  3 15 9  3 21 4  1     250.00000000      83.33333333     166.66666667      90.00000000     372.67799625
  3 15 9  3 21 5  1     250.00000000      83.33333333     166.66666667      90.00000000     333.33333333
  3 15 9  3 21 6  1     250.00000000      83.33333333     166.66666667      90.00000000     372.67799625
  3 15 10  3 21 7  1     250.00000000      83.33333333     166.66666667      90.00000000     372.67799625
  3 15 10  3 21 8  1     250.00000000      83.33333333     166.66666667      90.00000000     333.33333333
  3 15 10  3 21 9  1     250.00000000      83.33333333     166.66666667      90.00000000     372.67799625
  3 15 11  3 21 10  1     250.00000000      83.33333333     166.66666667      90.00000000     372.67799625
  3 15 11  3 21 11  1     250.00000000      83.33333333     166.66666667      90.00000000     333.33333333
  3 15 11  3 21 12  1     250.00000000      83.33333333     166.66666667      90.00000000     372.67799625
  3 15 12  3 21 13  1     250.00000000      83.33333333     166.66666667      90.00000000     372.67799625
  3 15 12  3 21 14  1     250.00000000      83.33333333     166.66666667      90.00000000     333.33333333
  3 15 12  3 21 15  1     250.00000000      83.33333333     166.66666667      90.00000000     372.67799625
  3 15 13  3 21 16  1     250.00000000      83.33333333     166.66666667      90.00000000     372.67799625
  3 15 13  3 21 17  1     250.00000000      83.33333333     166.66666667      90.00000000     333.33333333
  3 14 14  3 21 18  1     250.00000000      83.33333333     166.66666667     180.00000000     372.67799625
  3 15 13  3 21 18  1     250.00000000      83.33333333     166.66666667      90.00000000     372.67799625
END exchangedata

