# File generated by Flopy version 3.3.6 on 12/23/2022 at 11:08:39.
BEGIN options
END options

BEGIN dimensions
  MAXBOUND  21
END dimensions

BEGIN period  1
  1 1 20     320.00000000  100000.00000000     318.00000000
  1 2 20     320.00000000  100000.00000000     318.00000000
  1 3 20     320.00000000  100000.00000000     318.00000000
  1 4 20     320.00000000  100000.00000000     318.00000000
  1 5 20     320.00000000  100000.00000000     318.00000000
  1 6 20     320.00000000  100000.00000000     318.00000000
  1 7 20     320.00000000  100000.00000000     318.00000000
  1 8 20     320.00000000  100000.00000000     318.00000000
  1 9 20     320.00000000  100000.00000000     318.00000000
  1 10 20     320.00000000  100000.00000000     318.00000000
  1 11 20     320.00000000  100000.00000000     318.00000000
  1 12 20     320.00000000  100000.00000000     318.00000000
  1 13 20     320.00000000  100000.00000000     318.00000000
  1 14 20     320.00000000  100000.00000000     318.00000000
  1 15 20     320.00000000  100000.00000000     318.00000000
  1 16 20     320.00000000  100000.00000000     318.00000000
  1 17 20     320.00000000  100000.00000000     318.00000000
  1 18 20     320.00000000  100000.00000000     318.00000000
  1 19 20     320.00000000  100000.00000000     318.00000000
  1 20 20     320.00000000  100000.00000000     318.00000000
  1 21 20     320.00000000  100000.00000000     318.00000000
END period  1

