# File generated by Flopy version 3.3.6 on 12/23/2022 at 11:08:39.
BEGIN options
  SAVE_FLOWS
END options

BEGIN packages
  DIS6  ex05c.dis  dis
  IC6  ex05c.ic  ic
  NPF6  ex05c.npf  npf
  RCH6  ex05c.rcha  rcha_0
  WEL6  ex05c.wel  wel_0
  OC6  ex05c.oc  oc
END packages

