# File generated by Flopy version 3.3.6 on 12/23/2022 at 11:08:39.
BEGIN options
END options

BEGIN dimensions
  NLAY  3
  NROW  21
  NCOL  20
END dimensions

BEGIN griddata
  delr
    CONSTANT     500.00000000
  delc
    CONSTANT     500.00000000
  top
    CONSTANT     400.00000000
  botm  LAYERED
    CONSTANT     220.00000000
    CONSTANT     200.00000000
    CONSTANT       0.00000000
  idomain  LAYERED
    INTERNAL  FACTOR  1
      1  1  1  1  1  1  1  1  1  1  1  1  1  1  1  1  1  1  1  1
      1  1  1  1  1  1  1  1  1  1  1  1  1  1  1  1  1  1  1  1
      1  1  1  1  1  1  1  1  1  1  1  1  1  1  1  1  1  1  1  1
      1  1  1  1  1  1  1  1  1  1  1  1  1  1  1  1  1  1  1  1
      1  1  1  1  1  1  1  1  1  1  1  1  1  1  1  1  1  1  1  1
      1  1  1  1  1  1  1  1  1  1  1  1  1  1  1  1  1  1  1  1
      1  1  1  1  1  1  1  1  1  1  1  1  1  1  1  1  1  1  1  1
      1  1  1  1  1  1  1  1  0  0  1  1  1  1  1  1  1  1  1  1
      1  1  1  1  1  1  1  0  0  0  0  0  0  1  1  1  1  1  1  1
      1  1  1  1  1  1  1  0  0  0  0  0  0  1  1  1  1  1  1  1
      1  1  1  1  1  1  1  0  0  0  0  0  0  1  1  1  1  1  1  1
      1  1  1  1  1  1  1  0  0  0  0  0  0  1  1  1  1  1  1  1
      1  1  1  1  1  1  1  0  0  0  0  0  0  1  1  1  1  1  1  1
      1  1  1  1  1  1  1  0  0  0  0  0  0  1  1  1  1  1  1  1
      1  1  1  1  1  1  1  1  1  1  1  1  1  1  1  1  1  1  1  1
      1  1  1  1  1  1  1  1  1  1  1  1  1  1  1  1  1  1  1  1
      1  1  1  1  1  1  1  1  1  1  1  1  1  1  1  1  1  1  1  1
      1  1  1  1  1  1  1  1  1  1  1  1  1  1  1  1  1  1  1  1
      1  1  1  1  1  1  1  1  1  1  1  1  1  1  1  1  1  1  1  1
      1  1  1  1  1  1  1  1  1  1  1  1  1  1  1  1  1  1  1  1
      1  1  1  1  1  1  1  1  1  1  1  1  1  1  1  1  1  1  1  1
    INTERNAL  FACTOR  1
      1  1  1  1  1  1  1  1  1  1  1  1  1  1  1  1  1  1  1  1
      1  1  1  1  1  1  1  1  1  1  1  1  1  1  1  1  1  1  1  1
      1  1  1  1  1  1  1  1  1  1  1  1  1  1  1  1  1  1  1  1
      1  1  1  1  1  1  1  1  1  1  1  1  1  1  1  1  1  1  1  1
      1  1  1  1  1  1  1  1  1  1  1  1  1  1  1  1  1  1  1  1
      1  1  1  1  1  1  1  1  1  1  1  1  1  1  1  1  1  1  1  1
      1  1  1  1  1  1  1  1  1  1  1  1  1  1  1  1  1  1  1  1
      1  1  1  1  1  1  1  1  0  0  1  1  1  1  1  1  1  1  1  1
      1  1  1  1  1  1  1  0  0  0  0  0  0  1  1  1  1  1  1  1
      1  1  1  1  1  1  1  0  0  0  0  0  0  1  1  1  1  1  1  1
      1  1  1  1  1  1  1  0  0  0  0  0  0  1  1  1  1  1  1  1
      1  1  1  1  1  1  1  0  0  0  0  0  0  1  1  1  1  1  1  1
      1  1  1  1  1  1  1  0  0  0  0  0  0  1  1  1  1  1  1  1
      1  1  1  1  1  1  1  0  0  0  0  0  0  1  1  1  1  1  1  1
      1  1  1  1  1  1  1  1  1  1  1  1  1  1  1  1  1  1  1  1
      1  1  1  1  1  1  1  1  1  1  1  1  1  1  1  1  1  1  1  1
      1  1  1  1  1  1  1  1  1  1  1  1  1  1  1  1  1  1  1  1
      1  1  1  1  1  1  1  1  1  1  1  1  1  1  1  1  1  1  1  1
      1  1  1  1  1  1  1  1  1  1  1  1  1  1  1  1  1  1  1  1
      1  1  1  1  1  1  1  1  1  1  1  1  1  1  1  1  1  1  1  1
      1  1  1  1  1  1  1  1  1  1  1  1  1  1  1  1  1  1  1  1
    INTERNAL  FACTOR  1
      1  1  1  1  1  1  1  1  1  1  1  1  1  1  1  1  1  1  1  1
      1  1  1  1  1  1  1  1  1  1  1  1  1  1  1  1  1  1  1  1
      1  1  1  1  1  1  1  1  1  1  1  1  1  1  1  1  1  1  1  1
      1  1  1  1  1  1  1  1  1  1  1  1  1  1  1  1  1  1  1  1
      1  1  1  1  1  1  1  1  1  1  1  1  1  1  1  1  1  1  1  1
      1  1  1  1  1  1  1  1  1  1  1  1  1  1  1  1  1  1  1  1
      1  1  1  1  1  1  1  1  1  1  1  1  1  1  1  1  1  1  1  1
      1  1  1  1  1  1  1  1  0  0  1  1  1  1  1  1  1  1  1  1
      1  1  1  1  1  1  1  0  0  0  0  0  0  1  1  1  1  1  1  1
      1  1  1  1  1  1  1  0  0  0  0  0  0  1  1  1  1  1  1  1
      1  1  1  1  1  1  1  0  0  0  0  0  0  1  1  1  1  1  1  1
      1  1  1  1  1  1  1  0  0  0  0  0  0  1  1  1  1  1  1  1
      1  1  1  1  1  1  1  0  0  0  0  0  0  1  1  1  1  1  1  1
      1  1  1  1  1  1  1  0  0  0  0  0  0  1  1  1  1  1  1  1
      1  1  1  1  1  1  1  1  1  1  1  1  1  1  1  1  1  1  1  1
      1  1  1  1  1  1  1  1  1  1  1  1  1  1  1  1  1  1  1  1
      1  1  1  1  1  1  1  1  1  1  1  1  1  1  1  1  1  1  1  1
      1  1  1  1  1  1  1  1  1  1  1  1  1  1  1  1  1  1  1  1
      1  1  1  1  1  1  1  1  1  1  1  1  1  1  1  1  1  1  1  1
      1  1  1  1  1  1  1  1  1  1  1  1  1  1  1  1  1  1  1  1
      1  1  1  1  1  1  1  1  1  1  1  1  1  1  1  1  1  1  1  1
END griddata

