# File generated by Flopy version 3.3.6 on 12/23/2022 at 11:08:39.
BEGIN options
  XORIGIN    3500.00000000
  YORIGIN    3500.00000000
END options

BEGIN dimensions
  NLAY  3
  NROW  21
  NCOL  18
END dimensions

BEGIN griddata
  delr
    INTERNAL  FACTOR  1.0
       166.66666667     166.66666667     166.66666667     166.66666667     166.66666667     166.66666667     166.66666667     166.66666667     166.66666667     166.66666667     166.66666667     166.66666667     166.66666667     166.66666667     166.66666667     166.66666667     166.66666667     166.66666667
  delc
    INTERNAL  FACTOR  1.0
       166.66666667     166.66666667     166.66666667     166.66666667     166.66666667     166.66666667     166.66666667     166.66666667     166.66666667     166.66666667     166.66666667     166.66666667     166.66666667     166.66666667     166.66666667     166.66666667     166.66666667     166.66666667     166.66666667     166.66666667
       166.66666667
  top
    INTERNAL  FACTOR  1.0
       400.00000000     400.00000000     400.00000000     400.00000000     400.00000000     400.00000000     400.00000000     400.00000000     400.00000000     400.00000000     400.00000000     400.00000000     400.00000000     400.00000000     400.00000000     400.00000000     400.00000000     400.00000000
       400.00000000     400.00000000     400.00000000     400.00000000     400.00000000     400.00000000     400.00000000     400.00000000     400.00000000     400.00000000     400.00000000     400.00000000     400.00000000     400.00000000     400.00000000     400.00000000     400.00000000     400.00000000
       400.00000000     400.00000000     400.00000000     400.00000000     400.00000000     400.00000000     400.00000000     400.00000000     400.00000000     400.00000000     400.00000000     400.00000000     400.00000000     400.00000000     400.00000000     400.00000000     400.00000000     400.00000000
       400.00000000     400.00000000     400.00000000     400.00000000     400.00000000     400.00000000     400.00000000     400.00000000     400.00000000     400.00000000     400.00000000     400.00000000     400.00000000     400.00000000     400.00000000     400.00000000     400.00000000     400.00000000
       400.00000000     400.00000000     400.00000000     400.00000000     400.00000000     400.00000000     400.00000000     400.00000000     400.00000000     400.00000000     400.00000000     400.00000000     400.00000000     400.00000000     400.00000000     400.00000000     400.00000000     400.00000000
       400.00000000     400.00000000     400.00000000     400.00000000     400.00000000     400.00000000     400.00000000     400.00000000     400.00000000     400.00000000     400.00000000     400.00000000     400.00000000     400.00000000     400.00000000     400.00000000     400.00000000     400.00000000
       400.00000000     400.00000000     400.00000000     400.00000000     400.00000000     400.00000000     400.00000000     400.00000000     400.00000000     400.00000000     400.00000000     400.00000000     400.00000000     400.00000000     400.00000000     400.00000000     400.00000000     400.00000000
       400.00000000     400.00000000     400.00000000     400.00000000     400.00000000     400.00000000     400.00000000     400.00000000     400.00000000     400.00000000     400.00000000     400.00000000     400.00000000     400.00000000     400.00000000     400.00000000     400.00000000     400.00000000
       400.00000000     400.00000000     400.00000000     400.00000000     400.00000000     400.00000000     400.00000000     400.00000000     400.00000000     400.00000000     400.00000000     400.00000000     400.00000000     400.00000000     400.00000000     400.00000000     400.00000000     400.00000000
       400.00000000     400.00000000     400.00000000     400.00000000     400.00000000     400.00000000     400.00000000     400.00000000     400.00000000     400.00000000     400.00000000     400.00000000     400.00000000     400.00000000     400.00000000     400.00000000     400.00000000     400.00000000
       400.00000000     400.00000000     400.00000000     400.00000000     400.00000000     400.00000000     400.00000000     400.00000000     400.00000000     400.00000000     400.00000000     400.00000000     400.00000000     400.00000000     400.00000000     400.00000000     400.00000000     400.00000000
       400.00000000     400.00000000     400.00000000     400.00000000     400.00000000     400.00000000     400.00000000     400.00000000     400.00000000     400.00000000     400.00000000     400.00000000     400.00000000     400.00000000     400.00000000     400.00000000     400.00000000     400.00000000
       400.00000000     400.00000000     400.00000000     400.00000000     400.00000000     400.00000000     400.00000000     400.00000000     400.00000000     400.00000000     400.00000000     400.00000000     400.00000000     400.00000000     400.00000000     400.00000000     400.00000000     400.00000000
       400.00000000     400.00000000     400.00000000     400.00000000     400.00000000     400.00000000     400.00000000     400.00000000     400.00000000     400.00000000     400.00000000     400.00000000     400.00000000     400.00000000     400.00000000     400.00000000     400.00000000     400.00000000
       400.00000000     400.00000000     400.00000000     400.00000000     400.00000000     400.00000000     400.00000000     400.00000000     400.00000000     400.00000000     400.00000000     400.00000000     400.00000000     400.00000000     400.00000000     400.00000000     400.00000000     400.00000000
       400.00000000     400.00000000     400.00000000     400.00000000     400.00000000     400.00000000     400.00000000     400.00000000     400.00000000     400.00000000     400.00000000     400.00000000     400.00000000     400.00000000     400.00000000     400.00000000     400.00000000     400.00000000
       400.00000000     400.00000000     400.00000000     400.00000000     400.00000000     400.00000000     400.00000000     400.00000000     400.00000000     400.00000000     400.00000000     400.00000000     400.00000000     400.00000000     400.00000000     400.00000000     400.00000000     400.00000000
       400.00000000     400.00000000     400.00000000     400.00000000     400.00000000     400.00000000     400.00000000     400.00000000     400.00000000     400.00000000     400.00000000     400.00000000     400.00000000     400.00000000     400.00000000     400.00000000     400.00000000     400.00000000
       400.00000000     400.00000000     400.00000000     400.00000000     400.00000000     400.00000000     400.00000000     400.00000000     400.00000000     400.00000000     400.00000000     400.00000000     400.00000000     400.00000000     400.00000000     400.00000000     400.00000000     400.00000000
       400.00000000     400.00000000     400.00000000     400.00000000     400.00000000     400.00000000     400.00000000     400.00000000     400.00000000     400.00000000     400.00000000     400.00000000     400.00000000     400.00000000     400.00000000     400.00000000     400.00000000     400.00000000
       400.00000000     400.00000000     400.00000000     400.00000000     400.00000000     400.00000000     400.00000000     400.00000000     400.00000000     400.00000000     400.00000000     400.00000000     400.00000000     400.00000000     400.00000000     400.00000000     400.00000000     400.00000000
  botm  LAYERED
    INTERNAL  FACTOR  1.0
         220.00000000     220.00000000     220.00000000     220.00000000     220.00000000     220.00000000     220.00000000     220.00000000     220.00000000     220.00000000     220.00000000     220.00000000     220.00000000     220.00000000     220.00000000     220.00000000     220.00000000     220.00000000
         220.00000000     220.00000000     220.00000000     220.00000000     220.00000000     220.00000000     220.00000000     220.00000000     220.00000000     220.00000000     220.00000000     220.00000000     220.00000000     220.00000000     220.00000000     220.00000000     220.00000000     220.00000000
         220.00000000     220.00000000     220.00000000     220.00000000     220.00000000     220.00000000     220.00000000     220.00000000     220.00000000     220.00000000     220.00000000     220.00000000     220.00000000     220.00000000     220.00000000     220.00000000     220.00000000     220.00000000
         220.00000000     220.00000000     220.00000000     220.00000000     220.00000000     220.00000000     220.00000000     220.00000000     220.00000000     220.00000000     220.00000000     220.00000000     220.00000000     220.00000000     220.00000000     220.00000000     220.00000000     220.00000000
         220.00000000     220.00000000     220.00000000     220.00000000     220.00000000     220.00000000     220.00000000     220.00000000     220.00000000     220.00000000     220.00000000     220.00000000     220.00000000     220.00000000     220.00000000     220.00000000     220.00000000     220.00000000
         220.00000000     220.00000000     220.00000000     220.00000000     220.00000000     220.00000000     220.00000000     220.00000000     220.00000000     220.00000000     220.00000000     220.00000000     220.00000000     220.00000000     220.00000000     220.00000000     220.00000000     220.00000000
         220.00000000     220.00000000     220.00000000     220.00000000     220.00000000     220.00000000     220.00000000     220.00000000     220.00000000     220.00000000     220.00000000     220.00000000     220.00000000     220.00000000     220.00000000     220.00000000     220.00000000     220.00000000
         220.00000000     220.00000000     220.00000000     220.00000000     220.00000000     220.00000000     220.00000000     220.00000000     220.00000000     220.00000000     220.00000000     220.00000000     220.00000000     220.00000000     220.00000000     220.00000000     220.00000000     220.00000000
         220.00000000     220.00000000     220.00000000     220.00000000     220.00000000     220.00000000     220.00000000     220.00000000     220.00000000     220.00000000     220.00000000     220.00000000     220.00000000     220.00000000     220.00000000     220.00000000     220.00000000     220.00000000
         220.00000000     220.00000000     220.00000000     220.00000000     220.00000000     220.00000000     220.00000000     220.00000000     220.00000000     220.00000000     220.00000000     220.00000000     220.00000000     220.00000000     220.00000000     220.00000000     220.00000000     220.00000000
         220.00000000     220.00000000     220.00000000     220.00000000     220.00000000     220.00000000     220.00000000     220.00000000     220.00000000     220.00000000     220.00000000     220.00000000     220.00000000     220.00000000     220.00000000     220.00000000     220.00000000     220.00000000
         220.00000000     220.00000000     220.00000000     220.00000000     220.00000000     220.00000000     220.00000000     220.00000000     220.00000000     220.00000000     220.00000000     220.00000000     220.00000000     220.00000000     220.00000000     220.00000000     220.00000000     220.00000000
         220.00000000     220.00000000     220.00000000     220.00000000     220.00000000     220.00000000     220.00000000     220.00000000     220.00000000     220.00000000     220.00000000     220.00000000     220.00000000     220.00000000     220.00000000     220.00000000     220.00000000     220.00000000
         220.00000000     220.00000000     220.00000000     220.00000000     220.00000000     220.00000000     220.00000000     220.00000000     220.00000000     220.00000000     220.00000000     220.00000000     220.00000000     220.00000000     220.00000000     220.00000000     220.00000000     220.00000000
         220.00000000     220.00000000     220.00000000     220.00000000     220.00000000     220.00000000     220.00000000     220.00000000     220.00000000     220.00000000     220.00000000     220.00000000     220.00000000     220.00000000     220.00000000     220.00000000     220.00000000     220.00000000
         220.00000000     220.00000000     220.00000000     220.00000000     220.00000000     220.00000000     220.00000000     220.00000000     220.00000000     220.00000000     220.00000000     220.00000000     220.00000000     220.00000000     220.00000000     220.00000000     220.00000000     220.00000000
         220.00000000     220.00000000     220.00000000     220.00000000     220.00000000     220.00000000     220.00000000     220.00000000     220.00000000     220.00000000     220.00000000     220.00000000     220.00000000     220.00000000     220.00000000     220.00000000     220.00000000     220.00000000
         220.00000000     220.00000000     220.00000000     220.00000000     220.00000000     220.00000000     220.00000000     220.00000000     220.00000000     220.00000000     220.00000000     220.00000000     220.00000000     220.00000000     220.00000000     220.00000000     220.00000000     220.00000000
         220.00000000     220.00000000     220.00000000     220.00000000     220.00000000     220.00000000     220.00000000     220.00000000     220.00000000     220.00000000     220.00000000     220.00000000     220.00000000     220.00000000     220.00000000     220.00000000     220.00000000     220.00000000
         220.00000000     220.00000000     220.00000000     220.00000000     220.00000000     220.00000000     220.00000000     220.00000000     220.00000000     220.00000000     220.00000000     220.00000000     220.00000000     220.00000000     220.00000000     220.00000000     220.00000000     220.00000000
         220.00000000     220.00000000     220.00000000     220.00000000     220.00000000     220.00000000     220.00000000     220.00000000     220.00000000     220.00000000     220.00000000     220.00000000     220.00000000     220.00000000     220.00000000     220.00000000     220.00000000     220.00000000
    INTERNAL  FACTOR  1.0
         200.00000000     200.00000000     200.00000000     200.00000000     200.00000000     200.00000000     200.00000000     200.00000000     200.00000000     200.00000000     200.00000000     200.00000000     200.00000000     200.00000000     200.00000000     200.00000000     200.00000000     200.00000000
         200.00000000     200.00000000     200.00000000     200.00000000     200.00000000     200.00000000     200.00000000     200.00000000     200.00000000     200.00000000     200.00000000     200.00000000     200.00000000     200.00000000     200.00000000     200.00000000     200.00000000     200.00000000
         200.00000000     200.00000000     200.00000000     200.00000000     200.00000000     200.00000000     200.00000000     200.00000000     200.00000000     200.00000000     200.00000000     200.00000000     200.00000000     200.00000000     200.00000000     200.00000000     200.00000000     200.00000000
         200.00000000     200.00000000     200.00000000     200.00000000     200.00000000     200.00000000     200.00000000     200.00000000     200.00000000     200.00000000     200.00000000     200.00000000     200.00000000     200.00000000     200.00000000     200.00000000     200.00000000     200.00000000
         200.00000000     200.00000000     200.00000000     200.00000000     200.00000000     200.00000000     200.00000000     200.00000000     200.00000000     200.00000000     200.00000000     200.00000000     200.00000000     200.00000000     200.00000000     200.00000000     200.00000000     200.00000000
         200.00000000     200.00000000     200.00000000     200.00000000     200.00000000     200.00000000     200.00000000     200.00000000     200.00000000     200.00000000     200.00000000     200.00000000     200.00000000     200.00000000     200.00000000     200.00000000     200.00000000     200.00000000
         200.00000000     200.00000000     200.00000000     200.00000000     200.00000000     200.00000000     200.00000000     200.00000000     200.00000000     200.00000000     200.00000000     200.00000000     200.00000000     200.00000000     200.00000000     200.00000000     200.00000000     200.00000000
         200.00000000     200.00000000     200.00000000     200.00000000     200.00000000     200.00000000     200.00000000     200.00000000     200.00000000     200.00000000     200.00000000     200.00000000     200.00000000     200.00000000     200.00000000     200.00000000     200.00000000     200.00000000
         200.00000000     200.00000000     200.00000000     200.00000000     200.00000000     200.00000000     200.00000000     200.00000000     200.00000000     200.00000000     200.00000000     200.00000000     200.00000000     200.00000000     200.00000000     200.00000000     200.00000000     200.00000000
         200.00000000     200.00000000     200.00000000     200.00000000     200.00000000     200.00000000     200.00000000     200.00000000     200.00000000     200.00000000     200.00000000     200.00000000     200.00000000     200.00000000     200.00000000     200.00000000     200.00000000     200.00000000
         200.00000000     200.00000000     200.00000000     200.00000000     200.00000000     200.00000000     200.00000000     200.00000000     200.00000000     200.00000000     200.00000000     200.00000000     200.00000000     200.00000000     200.00000000     200.00000000     200.00000000     200.00000000
         200.00000000     200.00000000     200.00000000     200.00000000     200.00000000     200.00000000     200.00000000     200.00000000     200.00000000     200.00000000     200.00000000     200.00000000     200.00000000     200.00000000     200.00000000     200.00000000     200.00000000     200.00000000
         200.00000000     200.00000000     200.00000000     200.00000000     200.00000000     200.00000000     200.00000000     200.00000000     200.00000000     200.00000000     200.00000000     200.00000000     200.00000000     200.00000000     200.00000000     200.00000000     200.00000000     200.00000000
         200.00000000     200.00000000     200.00000000     200.00000000     200.00000000     200.00000000     200.00000000     200.00000000     200.00000000     200.00000000     200.00000000     200.00000000     200.00000000     200.00000000     200.00000000     200.00000000     200.00000000     200.00000000
         200.00000000     200.00000000     200.00000000     200.00000000     200.00000000     200.00000000     200.00000000     200.00000000     200.00000000     200.00000000     200.00000000     200.00000000     200.00000000     200.00000000     200.00000000     200.00000000     200.00000000     200.00000000
         200.00000000     200.00000000     200.00000000     200.00000000     200.00000000     200.00000000     200.00000000     200.00000000     200.00000000     200.00000000     200.00000000     200.00000000     200.00000000     200.00000000     200.00000000     200.00000000     200.00000000     200.00000000
         200.00000000     200.00000000     200.00000000     200.00000000     200.00000000     200.00000000     200.00000000     200.00000000     200.00000000     200.00000000     200.00000000     200.00000000     200.00000000     200.00000000     200.00000000     200.00000000     200.00000000     200.00000000
         200.00000000     200.00000000     200.00000000     200.00000000     200.00000000     200.00000000     200.00000000     200.00000000     200.00000000     200.00000000     200.00000000     200.00000000     200.00000000     200.00000000     200.00000000     200.00000000     200.00000000     200.00000000
         200.00000000     200.00000000     200.00000000     200.00000000     200.00000000     200.00000000     200.00000000     200.00000000     200.00000000     200.00000000     200.00000000     200.00000000     200.00000000     200.00000000     200.00000000     200.00000000     200.00000000     200.00000000
         200.00000000     200.00000000     200.00000000     200.00000000     200.00000000     200.00000000     200.00000000     200.00000000     200.00000000     200.00000000     200.00000000     200.00000000     200.00000000     200.00000000     200.00000000     200.00000000     200.00000000     200.00000000
         200.00000000     200.00000000     200.00000000     200.00000000     200.00000000     200.00000000     200.00000000     200.00000000     200.00000000     200.00000000     200.00000000     200.00000000     200.00000000     200.00000000     200.00000000     200.00000000     200.00000000     200.00000000
    INTERNAL  FACTOR  1.0
           0.00000000       0.00000000       0.00000000       0.00000000       0.00000000       0.00000000       0.00000000       0.00000000       0.00000000       0.00000000       0.00000000       0.00000000       0.00000000       0.00000000       0.00000000       0.00000000       0.00000000       0.00000000
           0.00000000       0.00000000       0.00000000       0.00000000       0.00000000       0.00000000       0.00000000       0.00000000       0.00000000       0.00000000       0.00000000       0.00000000       0.00000000       0.00000000       0.00000000       0.00000000       0.00000000       0.00000000
           0.00000000       0.00000000       0.00000000       0.00000000       0.00000000       0.00000000       0.00000000       0.00000000       0.00000000       0.00000000       0.00000000       0.00000000       0.00000000       0.00000000       0.00000000       0.00000000       0.00000000       0.00000000
           0.00000000       0.00000000       0.00000000       0.00000000       0.00000000       0.00000000       0.00000000       0.00000000       0.00000000       0.00000000       0.00000000       0.00000000       0.00000000       0.00000000       0.00000000       0.00000000       0.00000000       0.00000000
           0.00000000       0.00000000       0.00000000       0.00000000       0.00000000       0.00000000       0.00000000       0.00000000       0.00000000       0.00000000       0.00000000       0.00000000       0.00000000       0.00000000       0.00000000       0.00000000       0.00000000       0.00000000
           0.00000000       0.00000000       0.00000000       0.00000000       0.00000000       0.00000000       0.00000000       0.00000000       0.00000000       0.00000000       0.00000000       0.00000000       0.00000000       0.00000000       0.00000000       0.00000000       0.00000000       0.00000000
           0.00000000       0.00000000       0.00000000       0.00000000       0.00000000       0.00000000       0.00000000       0.00000000       0.00000000       0.00000000       0.00000000       0.00000000       0.00000000       0.00000000       0.00000000       0.00000000       0.00000000       0.00000000
           0.00000000       0.00000000       0.00000000       0.00000000       0.00000000       0.00000000       0.00000000       0.00000000       0.00000000       0.00000000       0.00000000       0.00000000       0.00000000       0.00000000       0.00000000       0.00000000       0.00000000       0.00000000
           0.00000000       0.00000000       0.00000000       0.00000000       0.00000000       0.00000000       0.00000000       0.00000000       0.00000000       0.00000000       0.00000000       0.00000000       0.00000000       0.00000000       0.00000000       0.00000000       0.00000000       0.00000000
           0.00000000       0.00000000       0.00000000       0.00000000       0.00000000       0.00000000       0.00000000       0.00000000       0.00000000       0.00000000       0.00000000       0.00000000       0.00000000       0.00000000       0.00000000       0.00000000       0.00000000       0.00000000
           0.00000000       0.00000000       0.00000000       0.00000000       0.00000000       0.00000000       0.00000000       0.00000000       0.00000000       0.00000000       0.00000000       0.00000000       0.00000000       0.00000000       0.00000000       0.00000000       0.00000000       0.00000000
           0.00000000       0.00000000       0.00000000       0.00000000       0.00000000       0.00000000       0.00000000       0.00000000       0.00000000       0.00000000       0.00000000       0.00000000       0.00000000       0.00000000       0.00000000       0.00000000       0.00000000       0.00000000
           0.00000000       0.00000000       0.00000000       0.00000000       0.00000000       0.00000000       0.00000000       0.00000000       0.00000000       0.00000000       0.00000000       0.00000000       0.00000000       0.00000000       0.00000000       0.00000000       0.00000000       0.00000000
           0.00000000       0.00000000       0.00000000       0.00000000       0.00000000       0.00000000       0.00000000       0.00000000       0.00000000       0.00000000       0.00000000       0.00000000       0.00000000       0.00000000       0.00000000       0.00000000       0.00000000       0.00000000
           0.00000000       0.00000000       0.00000000       0.00000000       0.00000000       0.00000000       0.00000000       0.00000000       0.00000000       0.00000000       0.00000000       0.00000000       0.00000000       0.00000000       0.00000000       0.00000000       0.00000000       0.00000000
           0.00000000       0.00000000       0.00000000       0.00000000       0.00000000       0.00000000       0.00000000       0.00000000       0.00000000       0.00000000       0.00000000       0.00000000       0.00000000       0.00000000       0.00000000       0.00000000       0.00000000       0.00000000
           0.00000000       0.00000000       0.00000000       0.00000000       0.00000000       0.00000000       0.00000000       0.00000000       0.00000000       0.00000000       0.00000000       0.00000000       0.00000000       0.00000000       0.00000000       0.00000000       0.00000000       0.00000000
           0.00000000       0.00000000       0.00000000       0.00000000       0.00000000       0.00000000       0.00000000       0.00000000       0.00000000       0.00000000       0.00000000       0.00000000       0.00000000       0.00000000       0.00000000       0.00000000       0.00000000       0.00000000
           0.00000000       0.00000000       0.00000000       0.00000000       0.00000000       0.00000000       0.00000000       0.00000000       0.00000000       0.00000000       0.00000000       0.00000000       0.00000000       0.00000000       0.00000000       0.00000000       0.00000000       0.00000000
           0.00000000       0.00000000       0.00000000       0.00000000       0.00000000       0.00000000       0.00000000       0.00000000       0.00000000       0.00000000       0.00000000       0.00000000       0.00000000       0.00000000       0.00000000       0.00000000       0.00000000       0.00000000
           0.00000000       0.00000000       0.00000000       0.00000000       0.00000000       0.00000000       0.00000000       0.00000000       0.00000000       0.00000000       0.00000000       0.00000000       0.00000000       0.00000000       0.00000000       0.00000000       0.00000000       0.00000000
  idomain  LAYERED
    INTERNAL  FACTOR  1
      0  0  0  1  1  1  1  1  1  0  0  0  0  0  0  0  0  0
      0  0  0  1  1  1  1  1  1  0  0  0  0  0  0  0  0  0
      0  0  0  1  1  1  1  1  1  0  0  0  0  0  0  0  0  0
      1  1  1  1  1  1  1  1  1  1  1  1  1  1  1  1  1  1
      1  1  1  1  1  1  1  1  1  1  1  1  1  1  1  1  1  1
      1  1  1  1  1  1  1  1  1  1  1  1  1  1  1  1  1  1
      1  1  1  1  1  1  1  1  1  1  1  1  1  1  1  1  1  1
      1  1  1  1  1  1  1  1  1  1  1  1  1  1  1  1  1  1
      1  1  1  1  1  1  1  1  1  1  1  1  1  1  1  1  1  1
      1  1  1  1  1  1  1  1  1  1  1  1  1  1  1  1  1  1
      1  1  1  1  1  1  1  1  1  1  1  1  1  1  1  1  1  1
      1  1  1  1  1  1  1  1  1  1  1  1  1  1  1  1  1  1
      1  1  1  1  1  1  1  1  1  1  1  1  1  1  1  1  1  1
      1  1  1  1  1  1  1  1  1  1  1  1  1  1  1  1  1  1
      1  1  1  1  1  1  1  1  1  1  1  1  1  1  1  1  1  1
      1  1  1  1  1  1  1  1  1  1  1  1  1  1  1  1  1  1
      1  1  1  1  1  1  1  1  1  1  1  1  1  1  1  1  1  1
      1  1  1  1  1  1  1  1  1  1  1  1  1  1  1  1  1  1
      1  1  1  1  1  1  1  1  1  1  1  1  1  1  1  1  1  1
      1  1  1  1  1  1  1  1  1  1  1  1  1  1  1  1  1  1
      1  1  1  1  1  1  1  1  1  1  1  1  1  1  1  1  1  1
    INTERNAL  FACTOR  1
      0  0  0  1  1  1  1  1  1  0  0  0  0  0  0  0  0  0
      0  0  0  1  1  1  1  1  1  0  0  0  0  0  0  0  0  0
      0  0  0  1  1  1  1  1  1  0  0  0  0  0  0  0  0  0
      1  1  1  1  1  1  1  1  1  1  1  1  1  1  1  1  1  1
      1  1  1  1  1  1  1  1  1  1  1  1  1  1  1  1  1  1
      1  1  1  1  1  1  1  1  1  1  1  1  1  1  1  1  1  1
      1  1  1  1  1  1  1  1  1  1  1  1  1  1  1  1  1  1
      1  1  1  1  1  1  1  1  1  1  1  1  1  1  1  1  1  1
      1  1  1  1  1  1  1  1  1  1  1  1  1  1  1  1  1  1
      1  1  1  1  1  1  1  1  1  1  1  1  1  1  1  1  1  1
      1  1  1  1  1  1  1  1  1  1  1  1  1  1  1  1  1  1
      1  1  1  1  1  1  1  1  1  1  1  1  1  1  1  1  1  1
      1  1  1  1  1  1  1  1  1  1  1  1  1  1  1  1  1  1
      1  1  1  1  1  1  1  1  1  1  1  1  1  1  1  1  1  1
      1  1  1  1  1  1  1  1  1  1  1  1  1  1  1  1  1  1
      1  1  1  1  1  1  1  1  1  1  1  1  1  1  1  1  1  1
      1  1  1  1  1  1  1  1  1  1  1  1  1  1  1  1  1  1
      1  1  1  1  1  1  1  1  1  1  1  1  1  1  1  1  1  1
      1  1  1  1  1  1  1  1  1  1  1  1  1  1  1  1  1  1
      1  1  1  1  1  1  1  1  1  1  1  1  1  1  1  1  1  1
      1  1  1  1  1  1  1  1  1  1  1  1  1  1  1  1  1  1
    INTERNAL  FACTOR  1
      0  0  0  1  1  1  1  1  1  0  0  0  0  0  0  0  0  0
      0  0  0  1  1  1  1  1  1  0  0  0  0  0  0  0  0  0
      0  0  0  1  1  1  1  1  1  0  0  0  0  0  0  0  0  0
      1  1  1  1  1  1  1  1  1  1  1  1  1  1  1  1  1  1