# File generated by Flopy version 3.3.6 on 12/23/2022 at 11:08:39.
BEGIN options
  READASARRAYS
  auxiliary  iface
END options

BEGIN period  1
  recharge
    CONSTANT       0.00500000
  iface
    CONSTANT       6.00000000
END period  1

