# File generated by Flopy version 3.3.6 on 12/23/2022 at 11:08:39.
BEGIN options
  BUDGET  FILEOUT  ex05.cbc
  HEAD  FILEOUT  ex05.hds
  HEAD  PRINT_FORMAT  COLUMNS  10  WIDTH  15  DIGITS  6  GENERAL
END options

BEGIN period  1
  SAVE  HEAD  ALL
  SAVE  BUDGET  ALL
  PRINT  HEAD  ALL
  PRINT  BUDGET  ALL
END period  1

