# File generated by Flopy version 3.3.6 on 12/23/2022 at 11:08:39.
BEGIN griddata
  strt
    CONSTANT     320.00000000
END griddata

