# File generated by Flopy version 3.3.6 on 12/23/2022 at 11:08:39.
BEGIN options
END options

BEGIN timing
  TDIS6  ex05.tdis
END timing

BEGIN models
  gwf6  ex05.nam  ex05
  gwf6  ex05c.nam  ex05c
END models

BEGIN exchanges
  gwf6-gwf6  ex05.gwfgwf  ex05  ex05c
END exchanges

BEGIN solutiongroup  1
  ims6  ex05.ims  ex05  ex05c
END solutiongroup  1

