begin options
  PRINT_INPUT
  PRINT_FLOWS
  SAVE_FLOWS
end options

begin dimensions
  MAXBOUND 65
end dimensions

begin period 1
         1         4         4     9.00 
         1         4         5     9.00 
         1         4         6     9.00 
         1         4         7     9.00 
         1         5         3     9.00 
         1         5         4     9.00 
         1         5         5     9.00 
         1         5         6     9.00 
         1         5         7     9.00 
         1         6         3     9.00 
         1         6         4     9.00 
         1         6         5     9.00 
         1         6         6     9.00 
         1         6         7     9.00 
         1         7         3     9.00 
         1         7         4     9.00 
         1         7         5     9.00 
         1         7         6     9.00 
         1         7         7     9.00 
         1         8         3     9.00 
         1         8         4     9.00 
         1         8         5     9.00 
         1         8         6     9.00 
         1         8         7     9.00 
         1         9         3     9.00 
         1         9         4     9.00 
         1         9         5     9.00 
         1         9         6     9.00 
         1         9         7     9.00 
         1        10         3     9.00 
         1        10         4     9.00 
         1        10         5     9.00 
         1        10         6     9.00 
         1        10         7     9.00 
         1        10         8     9.00 
         1        11         4     9.00 
         1        11         5     9.00 
         1        11         6     9.00 
         1        11         7     9.00 
         1        11         8     9.00 
         1        12         4     9.00 
         1        12         5     9.00 
         1        12         6     9.00 
         1        12         7     9.00 
         1        12         8     9.00 
         1        12         9     9.00 
         1        13         5     9.00 
         1        13         6     9.00 
         1        13         7     9.00 
         1        13         8     9.00 
         1        13         9     9.00 
         1        14         5     9.00 
         1        14         6     9.00 
         1        14         7     9.00 
         1        14         8     9.00 
         1        14         9     9.00 
         1        15         5     9.00 
         1        15         6     9.00 
         1        15         7     9.00 
         1        15         8     9.00 
         1        15         9     9.00 
         1        16         6     9.00 
         1        16         7     9.00 
         1        16         8     9.00 
         1        16         9     9.00 
end period
