BEGIN DIMENSIONS
  NCELLS 1260
END DIMENSIONS

BEGIN GRIDDATA
  IZONE LAYERED
  internal
  1 1 1 1 1 1 1 1 1 1 1 1 1 2 2 2 2 2 2 2
  1 1 1 1 1 1 1 1 1 1 1 1 1 2 2 2 2 2 2 2
  1 1 1 1 1 1 1 1 1 1 1 1 1 2 2 2 2 2 2 2
  1 1 1 1 1 1 1 1 1 1 1 1 1 2 2 2 2 2 2 2
  1 1 1 1 1 1 1 1 1 1 1 1 1 2 2 2 2 2 2 2
  1 1 1 1 1 1 1 1 1 1 1 1 1 2 2 2 2 2 2 2
  1 1 1 1 1 1 1 1 1 1 1 1 1 2 2 2 2 2 2 2
  1 1 1 1 1 1 1 1 1 1 1 1 1 2 2 2 2 2 2 2
  1 1 1 1 1 1 1 1 1 1 1 1 1 2 2 2 2 2 2 2
  1 1 1 1 1 1 1 1 1 1 1 1 1 2 2 2 2 2 2 2
  1 1 1 1 1 1 1 1 1 1 1 1 1 2 2 2 2 2 2 2
  1 1 1 1 1 1 1 1 1 1 1 1 1 2 2 2 2 2 2 2
  1 1 1 1 1 1 1 1 1 1 1 1 1 2 2 2 2 2 2 2
  1 1 1 1 1 1 1 1 1 1 1 1 1 2 2 2 2 2 2 2
  1 1 1 1 1 1 1 1 1 1 1 1 1 2 2 2 2 2 2 2
  1 1 1 1 1 1 1 1 1 1 1 1 1 2 2 2 2 2 2 2
  1 1 1 1 1 1 1 1 1 1 1 1 1 2 2 2 2 2 2 2
  1 1 1 1 1 1 1 1 1 1 1 1 1 2 2 2 2 2 2 2
  1 1 1 1 1 1 1 1 1 1 1 1 1 2 2 2 2 2 2 2
  1 1 1 1 1 1 1 1 1 1 1 1 1 2 2 2 2 2 2 2
  1 1 1 1 1 1 1 1 1 1 1 1 1 2 2 2 2 2 2 2
	internal
  3 3 3 3 3 3 3 3 3 3 3 3 3 4 4 4 4 4 4 4
  3 3 3 3 3 3 3 3 3 3 3 3 3 4 4 4 4 4 4 4
  3 3 3 3 3 3 3 3 3 3 3 3 3 4 4 4 4 4 4 4
  3 3 3 3 3 3 3 3 3 3 3 3 3 4 4 4 4 4 4 4
  3 3 3 3 3 3 3 3 3 3 3 3 3 4 4 4 4 4 4 4
  3 3 3 3 3 3 3 3 3 3 3 3 3 4 4 4 4 4 4 4
  3 3 3 3 3 3 3 3 3 3 3 3 3 4 4 4 4 4 4 4
  3 3 3 3 3 3 3 3 3 3 3 3 3 4 4 4 4 4 4 4
  3 3 3 3 3 3 3 3 3 3 3 3 3 4 4 4 4 4 4 4
  3 3 3 3 3 3 3 3 3 3 3 3 3 4 4 4 4 4 4 4
  3 3 3 3 3 3 3 3 3 3 3 3 3 4 4 4 4 4 4 4
  3 3 3 3 3 3 3 3 3 3 3 3 3 4 4 4 4 4 4 4
  3 3 3 3 3 3 3 3 3 3 3 3 3 4 4 4 4 4 4 4
  3 3 3 3 3 3 3 3 3 3 3 3 3 4 4 4 4 4 4 4
  3 3 3 3 3 3 3 3 3 3 3 3 3 4 4 4 4 4 4 4
  3 3 3 3 3 3 3 3 3 3 3 3 3 4 4 4 4 4 4 4
  3 3 3 3 3 3 3 3 3 3 3 3 3 4 4 4 4 4 4 4
  3 3 3 3 3 3 3 3 3 3 3 3 3 4 4 4 4 4 4 4
  3 3 3 3 3 3 3 3 3 3 3 3 3 4 4 4 4 4 4 4
  3 3 3 3 3 3 3 3 3 3 3 3 3 4 4 4 4 4 4 4
  3 3 3 3 3 3 3 3 3 3 3 3 3 4 4 4 4 4 4 4
	internal
  5 5 5 5 5 5 5 5 5 5 5 5 5 6 6 6 6 6 6 6
  5 5 5 5 5 5 5 5 5 5 5 5 5 6 6 6 6 6 6 6
  5 5 5 5 5 5 5 5 5 5 5 5 5 6 6 6 6 6 6 6
  5 5 5 5 5 5 5 5 5 5 5 5 5 6 6 6 6 6 6 6
  5 5 5 5 5 5 5 5 5 5 5 5 5 6 6 6 6 6 6 6
  5 5 5 5 5 5 5 5 5 5 5 5 5 6 6 6 6 6 6 6
  5 5 5 5 5 5 5 5 5 5 5 5 5 6 6 6 6 6 6 6
  5 5 5 5 5 5 5 5 5 5 5 5 5 6 6 6 6 6 6 6
  5 5 5 5 5 5 5 5 5 5 5 5 5 6 6 6 6 6 6 6
  5 5 5 5 5 5 5 5 5 5 5 5 5 6 6 6 6 6 6 6
  5 5 5 5 5 5 5 5 5 5 5 5 5 6 6 6 6 6 6 6
  5 5 5 5 5 5 5 5 5 5 5 5 5 6 6 6 6 6 6 6
  5 5 5 5 5 5 5 5 5 5 5 5 5 6 6 6 6 6 6 6
  5 5 5 5 5 5 5 5 5 5 5 5 5 6 6 6 6 6 6 6
  5 5 5 5 5 5 5 5 5 5 5 5 5 6 6 6 6 6 6 6
  5 5 5 5 5 5 5 5 5 5 5 5 5 6 6 6 6 6 6 6
  5 5 5 5 5 5 5 5 5 5 5 5 5 6 6 6 6 6 6 6
  5 5 5 5 5 5 5 5 5 5 5 5 5 6 6 6 6 6 6 6
  5 5 5 5 5 5 5 5 5 5 5 5 5 6 6 6 6 6 6 6
  5 5 5 5 5 5 5 5 5 5 5 5 5 6 6 6 6 6 6 6
  5 5 5 5 5 5 5 5 5 5 5 5 5 6 6 6 6 6 6 6
END GRIDDATA

