BEGIN OPTIONS
  HEAD FILEOUT ps2.hds
  BUDGET FILEOUT ps2.bud
END OPTIONS

BEGIN PERIOD 1
  PRINT BUDGET ALL
  SAVE BUDGET ALL
  SAVE HEAD ALL
  PRINT HEAD ALL
END PERIOD
