begin options
  PRINT_INPUT
  PRINT_FLOWS
  SAVE_FLOWS
end options

begin dimensions
  MAXBOUND 42
end dimensions

begin period 1
# river
 1  1 20  320.0    
 1  2 20  320.0    
 1  3 20  320.0    
 1  4 20  320.0    
 1  5 20  320.0    
 1  6 20  320.0    
 1  7 20  320.0    
 1  8 20  320.0    
 1  9 20  320.0    
 1 10 20  320.0    
 1 11 20  320.0    
 1 12 20  320.0   
 1 13 20  320.0    
 1 14 20  320.0    
 1 15 20  320.0    
 1 16 20  320.0    
 1 17 20  320.0    
 1 18 20  320.0    
 1 19 20  320.0    
 1 20 20  320.0    
 1 21 20  320.0    
end period
