BEGIN OPTIONS
  SAVE_FLOWS
END OPTIONS

BEGIN GRIDDATA
  ICELLTYPE LAYERED
    CONSTANT 1
    CONSTANT 0
    CONSTANT 0
  K LAYERED
    CONSTANT 100.
    CONSTANT 0.02
    CONSTANT 400.
  K33 LAYERED
    CONSTANT 20.
    CONSTANT 0.02
    CONSTANT 40.
END GRIDDATA
