BEGIN Options
  LIST       at.lst
END Options

BEGIN Packages
  DIS6       at.dis
  IC6        at.ic
  NPF6       at.npf
  OC6        at.oc
  LAK6       at.lak
  RCH6       at.rch
  SFR6       at.sfr
  WEL6       at.wel
END Packages

