begin options
  digits 10
  print_input
end options

begin Continuous FILEOUT sfr.csv
  GWFFLOW   SFR    river
  usstage   STAGE  1
  dsstage   STAGE  18
end Continuous
