BEGIN DIMENSIONS
  NCELLS 1260
END DIMENSIONS

BEGIN GRIDDATA
  IZONE
    OPEN/CLOSE  zones.dat
END GRIDDATA
