BEGIN OPTIONS
  TIME_UNITS days
END OPTIONS

BEGIN DIMENSIONS
  NPER 3
END DIMENSIONS

BEGIN PERIODDATA
     1.0   1  1.0
  3650.0  10  1.5
  3650.0  10  1.5
END PERIODDATA
