ptf ~
BEGIN OPTIONS
  SAVE_FLOWS
  READASARRAYS
END OPTIONS

BEGIN PERIOD 1
  RECHARGE
    CONSTANT ~   rch         ~
END PERIOD
