begin options
  digits 20
  print_input
end options

begin Continuous FILEOUT chd.csv
  chdflow  chd  lake
end Continuous
