# Name file for MODFLOW-2005, generated by Flopy version 3.2.12.
#xll:0; yll:0; rotation:0; proj4_str:None; units:meters; lenuni:2;  ;start_datetime:1-1-1970
LIST               2  modflowtest.list
DIS               11  modflowtest.dis 
BAS6              13  modflowtest.bas 
