# BAS6 package for  MODFLOW-2005, generated by Flopy.
FREE
CONSTANT          1                                #ibound layer 1                
CONSTANT          1                                #ibound layer 2                
CONSTANT          1                                #ibound layer 3                
CONSTANT          1                                #ibound layer 4                
CONSTANT          1                                #ibound layer 5                
   -999.99
CONSTANT    1.100000E+01                           #strt layer 1                  
CONSTANT    1.100000E+01                           #strt layer 2                  
CONSTANT    1.100000E+01                           #strt layer 3                  
CONSTANT    1.100000E+01                           #strt layer 4                  
CONSTANT    1.100000E+01                           #strt layer 5                  
