# DRN package for  MODFLOW-2005, generated by Flopy.
         1        50
         0         0 # stress period 1
         0         0 # stress period 2
         0         0 # stress period 3
         1         0 # stress period 4
         1       113        98             2.0       1000000.0
