# DIS package for  MODFLOW-2005, generated by Flopy.
         5       200       125         4         4         2
  0  0  0  0  0
CONSTANT    1.000000E+02                           #delr                          
CONSTANT    1.000000E+02                           #delc                          
CONSTANT    0.000000E+00                           #model_top                     
CONSTANT   -5.000000E+00                           #botm layer 1                  
CONSTANT   -6.000000E+00                           #botm layer 2                  
CONSTANT   -7.000000E+00                           #botm layer 3                  
CONSTANT   -8.000000E+00                           #botm layer 4                  
CONSTANT   -9.000000E+00                           #botm layer 5                  
      1.000000             1  1.000000  SS 
      1.000000             1  1.000000  SS 
      1.000000             1  1.000000  SS 
      1.000000             1  1.000000  SS 
