# OC package for  MODFLOW-2005, generated by Flopy.
HEAD PRINT FORMAT   0
HEAD SAVE UNIT    51
DRAWDOWN PRINT FORMAT   0
COMPACT BUDGET AUX

period 1 step 1 
  print head
  save head
  print budget
  save budget

period 2 step 1 
  print head
  save head
  print budget
  save budget

period 3 step 1 
  print head
  save head
  print budget
  save budget

period 4 step 1 
  print head
  save head
  print budget
  save budget

