# PCG package for  MODFLOW-2005, generated by Flopy.
50 100 1 0
0.0001 1.0 1.0 0 0 3 1.0 
