# RIV package for  MODFLOW-2005, generated by Flopy.
        90        50
        90         0 # stress period 1
         1       111        43            1.79         80000.0           -0.21
         1       112        43            1.77         80000.0           -0.23
         1       113        43            1.75         80000.0           -0.25
         1       114        43            1.73         80000.0           -0.27
         1       115        43            1.71         80000.0           -0.29
         1       116        43            1.69         80000.0           -0.31
         1       117        43            1.67         80000.0           -0.33
         1       118        43            1.65         80000.0           -0.35
         1       119        43            1.63         80000.0           -0.37
         1       120        43            1.61         80000.0           -0.39
         1       121        43            1.59         80000.0           -0.41
         1       122        43            1.57         80000.0           -0.43
         1       123        43            1.55         80000.0           -0.45
         1       124        43            1.53         80000.0           -0.47
         1       125        43            1.51         80000.0           -0.49
         1       126        43            1.49         80000.0           -0.51
         1       127        43            1.47         80000.0           -0.53
         1       128        43            1.45         80000.0           -0.55
         1       129        43            1.43         80000.0           -0.57
         1       130        43            1.41         80000.0           -0.59
         1       131        43            1.39         80000.0           -0.61
         1       132        43            1.37         80000.0           -0.63
         1       133        43            1.35         80000.0           -0.65
         1       134        43            1.33         80000.0           -0.67
         1       135        43            1.31         80000.0           -0.69
         1       136        43            1.29         80000.0           -0.71
         1       137        43            1.27         80000.0           -0.73
         1       138        43            1.25         80000.0           -0.75
         1       139        43            1.23         80000.0           -0.77
         1       140        43            1.21         80000.0           -0.79
         1       141        43            1.19         80000.0           -0.81
         1       142        43            1.17         80000.0           -0.83
         1       143        43            1.15         80000.0           -0.85
         1       144        43            1.13         80000.0           -0.87
         1       145        43            1.11         80000.0           -0.89
         1       146        43            1.09         80000.0           -0.91
         1       147        43            1.07         80000.0           -0.93
         1       148        43            1.05         80000.0           -0.95
         1       149        43            1.03         80000.0           -0.97
         1       150        43            1.01         80000.0           -0.99
         1       151        43            0.99         80000.0           -1.01
         1       152        43            0.97         80000.0           -1.03
         1       153        43            0.95         80000.0           -1.05
         1       154        43            0.93         80000.0           -1.07
         1       155        43            0.91         80000.0           -1.09
         1       156        43            0.89         80000.0           -1.11
         1       157        43            0.87         80000.0           -1.13
         1       158        43            0.85         80000.0           -1.15
         1       159        43            0.83         80000.0           -1.17
         1       160        43            0.81         80000.0           -1.19
         1       161        43            0.79         80000.0           -1.21
         1       162        43            0.77         80000.0           -1.23
         1       163        43            0.75         80000.0           -1.25
         1       164        43            0.73         80000.0           -1.27
         1       165        43            0.71         80000.0           -1.29
         1       166        43            0.69         80000.0           -1.31
         1       167        43            0.67         80000.0           -1.33
         1       168        43            0.65         80000.0           -1.35
         1       169        43            0.63         80000.0           -1.37
         1       170        43            0.61         80000.0           -1.39
         1       171        43            0.59         80000.0           -1.41
         1       172        43            0.57         80000.0           -1.43
         1       173        43            0.55         80000.0           -1.45
         1       174        43            0.53         80000.0           -1.47
         1       175        43            0.51         80000.0           -1.49
         1       176        43            0.49         80000.0           -1.51
         1       177        43            0.47         80000.0           -1.53
         1       178        43            0.45         80000.0           -1.55
         1       179        43            0.43         80000.0           -1.57
         1       180        43            0.41         80000.0           -1.59
         1       181        43            0.39         80000.0           -1.61
         1       182        43            0.37         80000.0           -1.63
         1       183        43            0.35         80000.0           -1.65
         1       184        43            0.33         80000.0           -1.67
         1       185        43            0.31         80000.0           -1.69
         1       186        43            0.29         80000.0           -1.71
         1       187        43            0.27         80000.0           -1.73
         1       188        43            0.25         80000.0           -1.75
         1       189        43            0.23         80000.0           -1.77
         1       190        43            0.21         80000.0           -1.79
         1       191        43            0.19         80000.0           -1.81
         1       192        43            0.17         80000.0           -1.83
         1       193        43            0.15         80000.0           -1.85
         1       194        43            0.13         80000.0           -1.87
         1       195        43            0.11         80000.0           -1.89
         1       196        43            0.09         80000.0           -1.91
         1       197        43            0.07         80000.0           -1.93
         1       198        43            0.05         80000.0           -1.95
         1       199        43            0.03         80000.0           -1.97
         1       200        43            0.01         80000.0           -1.99
        -1         0 # stress period 2
        -1         0 # stress period 3
        -1         0 # stress period 4
