# RCH package for  MODFLOW-2005, generated by Flopy.
         3        50
         1        -1 # Stress period 1
INTERNAL               1 (125E15.6) -1 #rech_1                        
   3.662045E-03   3.687595E-03   3.639050E-03   3.637590E-03   3.614960E-03   3.635400E-03   3.635400E-03   3.668980E-03   3.651095E-03   3.627005E-03   3.523710E-03   3.477355E-03   3.369315E-03   3.438300E-03   3.549625E-03   3.562400E-03   3.716065E-03   3.689420E-03   3.663505E-03   3.573715E-03   3.521885E-03   3.486480E-03   3.585030E-03   3.723000E-03   3.688690E-03   3.556195E-03   3.571160E-03   3.638320E-03   3.664600E-03   3.548895E-03   3.487940E-03   3.466770E-03   3.452170E-03   3.479910E-03   3.481735E-03   3.605835E-03   3.566415E-03   3.595615E-03   3.618245E-03   3.643795E-03   3.669345E-03   3.701830E-03   3.720080E-03   3.551450E-03   3.498525E-03   3.469690E-03   3.485750E-03   3.502175E-03   3.555830E-03   3.573715E-03   3.579920E-03   3.598535E-03   3.705115E-03   3.685770E-03   3.711685E-03   3.709495E-03   3.679930E-03   3.726285E-03   3.874110E-03   3.931050E-03   3.882140E-03   3.804030E-03   3.873015E-03   3.846370E-03   3.930320E-03   3.932875E-03   3.858780E-03   3.839070E-03   3.837245E-03   3.856225E-03   3.747455E-03   3.793080E-03   3.803300E-03   3.712780E-03   3.623720E-03   3.653650E-03   3.665695E-03   3.657300E-03   3.633210E-03   3.630290E-03   3.725190E-03   3.761325E-03   3.729205E-03   3.714970E-03   3.588680E-03   3.619340E-03   3.577000E-03   3.583570E-03   3.668615E-03   3.618975E-03   3.652555E-03   3.542690E-03   3.567510E-03   3.646350E-03   3.771180E-03   3.629925E-03   3.636495E-03   3.625545E-03   3.698180E-03   3.577730E-03   3.691610E-03   3.631020E-03   3.565320E-03   3.498890E-03   3.527725E-03   3.621895E-03   3.497065E-03   3.486480E-03   3.466770E-03   3.518235E-03   3.559480E-03   3.616055E-03   3.508380E-03   3.566415E-03   3.620435E-03   3.603280E-03   3.697450E-03   3.767530E-03   3.743440E-03   3.840530E-03   3.833960E-03   3.747820E-03   3.680660E-03   3.614595E-03   3.635765E-03
   3.574080E-03   3.687230E-03   3.628465E-03   3.559845E-03   3.590140E-03   3.665330E-03   3.670805E-03   3.700735E-03   3.705480E-03   3.577000E-03   3.436475E-03   3.349605E-03   3.427715E-03   3.464945E-03   3.541595E-03   3.565685E-03   3.699640E-03   3.724460E-03   3.646350E-03   3.549990E-03   3.576635E-03   3.518235E-03   3.649635E-03   3.709860E-03   3.651460E-03   3.642335E-03   3.699640E-03   3.687960E-03   3.620800E-03   3.646350E-03   3.535025E-03   3.463850E-03   3.492320E-03   3.507285E-03   3.529185E-03   3.552180E-03   3.617150E-03   3.595980E-03   3.671170E-03   3.670440E-03   3.724460E-03   3.617515E-03   3.586490E-03   3.457645E-03   3.514220E-03   3.544150E-03   3.414940E-03   3.539040E-03   3.588315E-03   3.625910E-03   3.606200E-03   3.627005E-03   3.610945E-03   3.736505E-03   3.739425E-03   3.803665E-03   3.802205E-03   3.840895E-03   3.889440E-03   3.873745E-03   3.793445E-03   3.876665E-03   3.870460E-03   3.812425E-03   3.838705E-03   3.872285E-03   3.770815E-03   3.724095E-03   3.806950E-03   3.766435E-03   3.587950E-03   3.761325E-03   3.773735E-03   3.620435E-03   3.681390E-03   3.571525E-03   3.636130E-03   3.669345E-03   3.585395E-03   3.668980E-03   3.635400E-03   3.766070E-03   3.766435E-03   3.696355E-03   3.679930E-03   3.693800E-03   3.706575E-03   3.616785E-03   3.581380E-03   3.662775E-03   3.644525E-03   3.502175E-03   3.613135E-03   3.617150E-03   3.658030E-03   3.667155E-03   3.749280E-03   3.627735E-03   3.587585E-03   3.582110E-03   3.591235E-03   3.579190E-03   3.510935E-03   3.615690E-03   3.588680E-03   3.619340E-03   3.662045E-03   3.585760E-03   3.531740E-03   3.454360E-03   3.543055E-03   3.648540E-03   3.622260E-03   3.440855E-03   3.504365E-03   3.596345E-03   3.663870E-03   3.662045E-03   3.671535E-03   3.824105E-03   3.739060E-03   3.691610E-03   3.623720E-03   3.606565E-03   3.570430E-03
   3.570065E-03   3.567875E-03   3.548530E-03   3.547800E-03   3.608755E-03   3.606565E-03   3.717160E-03   3.635765E-03   3.691245E-03   3.511300E-03   3.355080E-03   3.318215E-03   3.428080E-03   3.481370E-03   3.602915E-03   3.620070E-03   3.650000E-03   3.831040E-03   3.709130E-03   3.581745E-03   3.637590E-03   3.597805E-03   3.555465E-03   3.671900E-03   3.644160E-03   3.636860E-03   3.617515E-03   3.671900E-03   3.599630E-03   3.555465E-03   3.548895E-03   3.610945E-03   3.649635E-03   3.614230E-03   3.576635E-03   3.574445E-03   3.662045E-03   3.752930E-03   3.728475E-03   3.734315E-03   3.687595E-03   3.687595E-03   3.621165E-03   3.601455E-03   3.539040E-03   3.485385E-03   3.496700E-03   3.609850E-03   3.643065E-03   3.646350E-03   3.612405E-03   3.550355E-03   3.578825E-03   3.633210E-03   3.695625E-03   3.727380E-03   3.838340E-03   3.715335E-03   3.848560E-03   3.883965E-03   3.857320E-03   3.833595E-03   3.837975E-03   3.865715E-03   3.909880E-03   3.850385E-03   3.810965E-03   3.790525E-03   3.672630E-03   3.690515E-03   3.670075E-03   3.579190E-03   3.631750E-03   3.677375E-03   3.631020E-03   3.612405E-03   3.582840E-03   3.523710E-03   3.557290E-03   3.643430E-03   3.636495E-03   3.687960E-03   3.728840E-03   3.731760E-03   3.759865E-03   3.756215E-03   3.743805E-03   3.693800E-03   3.651825E-03   3.607295E-03   3.589045E-03   3.582475E-03   3.595980E-03   3.682120E-03   3.742345E-03   3.789065E-03   3.715700E-03   3.601090E-03   3.551450E-03   3.636130E-03   3.538310E-03   3.497430E-03   3.648540E-03   3.607295E-03   3.747820E-03   3.659855E-03   3.662410E-03   3.640510E-03   3.596345E-03   3.668250E-03   3.645985E-03   3.709860E-03   3.646350E-03   3.608755E-03   3.595615E-03   3.575175E-03   3.627005E-03   3.577000E-03   3.607295E-03   3.722270E-03   3.741615E-03   3.669345E-03   3.579190E-03   3.560210E-03   3.540135E-03
   3.593425E-03   3.589775E-03   3.552545E-03   3.575905E-03   3.625910E-03   3.737965E-03   3.674455E-03   3.759500E-03   3.608025E-03   3.521520E-03   3.435745E-03   3.491955E-03   3.512395E-03   3.517505E-03   3.587220E-03   3.540135E-03   3.492320E-03   3.660950E-03   3.610580E-03   3.582840E-03   3.607295E-03   3.644160E-03   3.633940E-03   3.609850E-03   3.692340E-03   3.646715E-03   3.608755E-03   3.638685E-03   3.652190E-03   3.636495E-03   3.614230E-03   3.643795E-03   3.727015E-03   3.751105E-03   3.629925E-03   3.575540E-03   3.737235E-03   3.804030E-03   3.801475E-03   3.771180E-03   3.749280E-03   3.701100E-03   3.640145E-03   3.587220E-03   3.599265E-03   3.458010E-03   3.536485E-03   3.559115E-03   3.683945E-03   3.650000E-03   3.627005E-03   3.612405E-03   3.627735E-03   3.648175E-03   3.694530E-03   3.719715E-03   3.751835E-03   3.791620E-03   3.767530E-03   3.749645E-03   3.733950E-03   3.723365E-03   3.772640E-03   3.831770E-03   3.796730E-03   3.798555E-03   3.750010E-03   3.692340E-03   3.619340E-03   3.583205E-03   3.712780E-03   3.653650E-03   3.634305E-03   3.675550E-03   3.697815E-03   3.609850E-03   3.566780E-03   3.498160E-03   3.494510E-03   3.644160E-03   3.626640E-03   3.698910E-03   3.767530E-03   3.753660E-03   3.824105E-03   3.778115E-03   3.696720E-03   3.633575E-03   3.635400E-03   3.521520E-03   3.650730E-03   3.697815E-03   3.650365E-03   3.689055E-03   3.663870E-03   3.691245E-03   3.668250E-03   3.620800E-03   3.530645E-03   3.590870E-03   3.568605E-03   3.587220E-03   3.672630E-03   3.713875E-03   3.671170E-03   3.721540E-03   3.700735E-03   3.727745E-03   3.717890E-03   3.722635E-03   3.745995E-03   3.705480E-03   3.698545E-03   3.671900E-03   3.641240E-03   3.627370E-03   3.608390E-03   3.635035E-03   3.631750E-03   3.602185E-03   3.638320E-03   3.547070E-03   3.555830E-03   3.533200E-03   3.527360E-03
   3.490495E-03   3.490860E-03   3.524805E-03   3.543785E-03   3.610580E-03   3.631020E-03   3.612770E-03   3.731760E-03   3.579555E-03   3.574445E-03   3.564225E-03   3.581745E-03   3.583570E-03   3.612040E-03   3.568970E-03   3.507650E-03   3.464945E-03   3.493050E-03   3.554005E-03   3.627005E-03   3.667520E-03   3.752565E-03   3.729570E-03   3.691975E-03   3.640875E-03   3.665695E-03   3.757310E-03   3.623355E-03   3.626275E-03   3.652555E-03   3.626275E-03   3.624085E-03   3.684310E-03   3.702195E-03   3.664235E-03   3.608755E-03   3.624450E-03   3.671535E-03   3.763880E-03   3.753295E-03   3.752200E-03   3.737600E-03   3.618975E-03   3.604010E-03   3.615325E-03   3.593425E-03   3.579920E-03   3.586855E-03   3.610580E-03   3.621530E-03   3.690150E-03   3.658760E-03   3.614960E-03   3.613135E-03   3.743805E-03   3.755850E-03   3.677740E-03   3.755120E-03   3.729570E-03   3.732490E-03   3.778480E-03   3.777750E-03   3.735410E-03   3.745265E-03   3.745630E-03   3.773005E-03   3.844545E-03   3.664235E-03   3.578460E-03   3.627005E-03   3.629925E-03   3.625910E-03   3.606200E-03   3.620800E-03   3.619340E-03   3.591965E-03   3.550720E-03   3.547435E-03   3.630655E-03   3.652190E-03   3.652920E-03   3.718255E-03   3.770085E-03   3.836880E-03   3.806950E-03   3.879950E-03   3.720445E-03   3.726285E-03   3.691975E-03   3.577365E-03   3.650365E-03   3.663870E-03   3.591600E-03   3.713145E-03   3.746360E-03   3.620800E-03   3.677375E-03   3.615690E-03   3.552910E-03   3.473705E-03   3.558020E-03   3.525900E-03   3.631385E-03   3.651825E-03   3.640510E-03   3.703290E-03   3.779210E-03   3.736505E-03   3.700005E-03   3.807680E-03   3.804395E-03   3.693070E-03   3.775560E-03   3.700735E-03   3.687960E-03   3.667520E-03   3.700735E-03   3.712050E-03   3.681755E-03   3.503270E-03   3.609120E-03   3.519330E-03   3.599265E-03   3.556925E-03   3.508380E-03
   3.495240E-03   3.384645E-03   3.489035E-03   3.426620E-03   3.493780E-03   3.556925E-03   3.623720E-03   3.662775E-03   3.621530E-03   3.536120E-03   3.563495E-03   3.607660E-03   3.582475E-03   3.644525E-03   3.632480E-03   3.668250E-03   3.631750E-03   3.483560E-03   3.549625E-03   3.617150E-03   3.662410E-03   3.850020E-03   3.823375E-03   3.742345E-03   3.637955E-03   3.668615E-03   3.724460E-03   3.631385E-03   3.576635E-03   3.699275E-03   3.754755E-03   3.677010E-03   3.595615E-03   3.609120E-03   3.664235E-03   3.656935E-03   3.598535E-03   3.674455E-03   3.642335E-03   3.659125E-03   3.714970E-03   3.632115E-03   3.610945E-03   3.633575E-03   3.595980E-03   3.590870E-03   3.602185E-03   3.571525E-03   3.608025E-03   3.555100E-03   3.638685E-03   3.671170E-03   3.694895E-03   3.682120E-03   3.764245E-03   3.720445E-03   3.686500E-03   3.719715E-03   3.812790E-03   3.792350E-03   3.782130E-03   3.786145E-03   3.755850E-03   3.726285E-03   3.836515E-03   3.812425E-03   3.842355E-03   3.734680E-03   3.670075E-03   3.683945E-03   3.630290E-03   3.688325E-03   3.650365E-03   3.652555E-03   3.628830E-03   3.556925E-03   3.609120E-03   3.545245E-03   3.620800E-03   3.668615E-03   3.671535E-03   3.662045E-03   3.698545E-03   3.710225E-03   3.803665E-03   3.785415E-03   3.831040E-03   3.729205E-03   3.568240E-03   3.683215E-03   3.667885E-03   3.683945E-03   3.714240E-03   3.617880E-03   3.701465E-03   3.741615E-03   3.693800E-03   3.600725E-03   3.606565E-03   3.493780E-03   3.488670E-03   3.548165E-03   3.518235E-03   3.492320E-03   3.629195E-03   3.685405E-03   3.686500E-03   3.778480E-03   3.741980E-03   3.777750E-03   3.815345E-03   3.703290E-03   3.666425E-03   3.656205E-03   3.650000E-03   3.614230E-03   3.670075E-03   3.666060E-03   3.606930E-03   3.541960E-03   3.613500E-03   3.639415E-03   3.679200E-03   3.578825E-03   3.536850E-03
   3.550720E-03   3.514585E-03   3.567875E-03   3.490130E-03   3.585030E-03   3.572255E-03   3.561305E-03   3.566780E-03   3.581745E-03   3.523710E-03   3.461295E-03   3.545245E-03   3.627005E-03   3.660585E-03   3.651825E-03   3.704020E-03   3.672265E-03   3.570065E-03   3.686500E-03   3.637955E-03   3.607660E-03   3.675185E-03   3.707305E-03   3.724460E-03   3.647445E-03   3.695625E-03   3.646715E-03   3.632480E-03   3.644890E-03   3.643065E-03   3.704385E-03   3.675915E-03   3.668250E-03   3.682485E-03   3.658395E-03   3.707670E-03   3.636130E-03   3.582840E-03   3.535025E-03   3.690515E-03   3.735775E-03   3.645255E-03   3.568605E-03   3.578095E-03   3.604740E-03   3.678470E-03   3.656205E-03   3.630655E-03   3.536485E-03   3.543055E-03   3.527725E-03   3.659490E-03   3.695260E-03   3.747820E-03   3.789430E-03   3.718255E-03   3.700005E-03   3.754755E-03   3.713875E-03   3.874475E-03   3.806220E-03   3.774465E-03   3.820455E-03   3.783955E-03   3.828850E-03   3.768990E-03   3.797825E-03   3.866810E-03   3.710955E-03   3.667520E-03   3.662045E-03   3.756945E-03   3.543420E-03   3.646715E-03   3.618975E-03   3.661315E-03   3.561305E-03   3.562400E-03   3.525535E-03   3.688690E-03   3.671535E-03   3.717525E-03   3.732490E-03   3.821550E-03   3.770450E-03   3.825565E-03   3.752930E-03   3.716795E-03   3.568605E-03   3.631385E-03   3.689785E-03   3.594155E-03   3.568240E-03   3.558020E-03   3.641240E-03   3.690880E-03   3.753660E-03   3.597440E-03   3.634670E-03   3.560940E-03   3.546340E-03   3.565685E-03   3.577730E-03   3.481370E-03   3.553640E-03   3.625910E-03   3.655475E-03   3.729935E-03   3.739790E-03   3.685770E-03   3.717890E-03   3.737600E-03   3.723000E-03   3.707305E-03   3.640875E-03   3.610215E-03   3.684675E-03   3.630290E-03   3.662410E-03   3.673360E-03   3.601455E-03   3.652190E-03   3.621530E-03   3.616055E-03   3.562035E-03
   3.474435E-03   3.460565E-03   3.568240E-03   3.465675E-03   3.531740E-03   3.441585E-03   3.416035E-03   3.416765E-03   3.458010E-03   3.512760E-03   3.564225E-03   3.555100E-03   3.582475E-03   3.647080E-03   3.724825E-03   3.708035E-03   3.756945E-03   3.664965E-03   3.713875E-03   3.654380E-03   3.588680E-03   3.562765E-03   3.641605E-03   3.654380E-03   3.713145E-03   3.695625E-03   3.564955E-03   3.585395E-03   3.613135E-03   3.663505E-03   3.616785E-03   3.670805E-03   3.608390E-03   3.663140E-03   3.689785E-03   3.710590E-03   3.618245E-03   3.716065E-03   3.678835E-03   3.711320E-03   3.697815E-03   3.657665E-03   3.574445E-03   3.701465E-03   3.691610E-03   3.690515E-03   3.714240E-03   3.653650E-03   3.655110E-03   3.690880E-03   3.655475E-03   3.701830E-03   3.717890E-03   3.690880E-03   3.785415E-03   3.796730E-03   3.774465E-03   3.758405E-03   3.834325E-03   3.789065E-03   3.803665E-03   3.754390E-03   3.787605E-03   3.757675E-03   3.714605E-03   3.756945E-03   3.717890E-03   3.849290E-03   3.716430E-03   3.741615E-03   3.628465E-03   3.641605E-03   3.610215E-03   3.650730E-03   3.532105E-03   3.568240E-03   3.546340E-03   3.587220E-03   3.562035E-03   3.622990E-03   3.609850E-03   3.711320E-03   3.781400E-03   3.835055E-03   3.882505E-03   3.821185E-03   3.798920E-03   3.701830E-03   3.694165E-03   3.599630E-03   3.581015E-03   3.556195E-03   3.602550E-03   3.543420E-03   3.653650E-03   3.655475E-03   3.678470E-03   3.526265E-03   3.589775E-03   3.578825E-03   3.622990E-03   3.535755E-03   3.549625E-03   3.521155E-03   3.620070E-03   3.624085E-03   3.625910E-03   3.669345E-03   3.606565E-03   3.662410E-03   3.718255E-03   3.706575E-03   3.740885E-03   3.725920E-03   3.749645E-03   3.624450E-03   3.652190E-03   3.589410E-03   3.629925E-03   3.639780E-03   3.645985E-03   3.664600E-03   3.566780E-03   3.584665E-03   3.545610E-03
   3.508745E-03   3.419320E-03   3.489765E-03   3.378440E-03   3.402165E-03   3.386835E-03   3.398880E-03   3.359095E-03   3.415305E-03   3.449250E-03   3.509840E-03   3.528820E-03   3.527360E-03   3.629925E-03   3.596345E-03   3.677375E-03   3.682120E-03   3.655840E-03   3.685405E-03   3.696355E-03   3.680295E-03   3.654745E-03   3.654745E-03   3.672995E-03   3.749645E-03   3.691610E-03   3.569700E-03   3.602915E-03   3.629925E-03   3.618975E-03   3.625180E-03   3.650365E-03   3.613500E-03   3.667155E-03   3.706210E-03   3.713145E-03   3.678835E-03   3.739790E-03   3.799285E-03   3.691245E-03   3.649635E-03   3.591600E-03   3.621165E-03   3.681025E-03   3.705480E-03   3.676645E-03   3.740155E-03   3.729570E-03   3.797095E-03   3.836515E-03   3.757675E-03   3.771180E-03   3.758405E-03   3.807680E-03   3.751470E-03   3.832500E-03   3.796365E-03   3.763880E-03   3.807680E-03   3.844180E-03   3.813520E-03   3.728475E-03   3.788335E-03   3.733585E-03   3.680660E-03   3.693070E-03   3.630290E-03   3.738695E-03   3.733950E-03   3.643430E-03   3.718985E-03   3.552910E-03   3.528455E-03   3.525900E-03   3.537215E-03   3.498525E-03   3.552545E-03   3.566050E-03   3.533930E-03   3.483925E-03   3.640145E-03   3.656570E-03   3.664965E-03   3.806585E-03   3.833230E-03   3.777020E-03   3.794540E-03   3.736870E-03   3.664600E-03   3.604375E-03   3.630655E-03   3.671170E-03   3.677010E-03   3.632115E-03   3.689055E-03   3.712050E-03   3.640145E-03   3.645620E-03   3.619340E-03   3.631385E-03   3.589410E-03   3.638685E-03   3.678835E-03   3.689785E-03   3.681390E-03   3.510570E-03   3.593060E-03   3.613865E-03   3.577730E-03   3.656570E-03   3.651095E-03   3.678105E-03   3.667520E-03   3.694165E-03   3.605835E-03   3.603645E-03   3.576635E-03   3.561305E-03   3.621895E-03   3.579920E-03   3.754390E-03   3.644525E-03   3.563130E-03   3.609120E-03   3.612040E-03
   3.464945E-03   3.279890E-03   3.321135E-03   3.315295E-03   3.344495E-03   3.406180E-03   3.428445E-03   3.405085E-03   3.428445E-03   3.495970E-03   3.478450E-03   3.539405E-03   3.584665E-03   3.532835E-03   3.586490E-03   3.612405E-03   3.595615E-03   3.574445E-03   3.633575E-03   3.689785E-03   3.661315E-03   3.662045E-03   3.656570E-03   3.682120E-03   3.782130E-03   3.665695E-03   3.574810E-03   3.631020E-03   3.634305E-03   3.712415E-03   3.707305E-03   3.624815E-03   3.633575E-03   3.651460E-03   3.703290E-03   3.812790E-03   3.748550E-03   3.805855E-03   3.840165E-03   3.681755E-03   3.606565E-03   3.614230E-03   3.636495E-03   3.757675E-03   3.728840E-03   3.715700E-03   3.724460E-03   3.813885E-03   3.810965E-03   3.819360E-03   3.851845E-03   3.843815E-03   3.764610E-03   3.810965E-03   3.788700E-03   3.859510E-03   3.824105E-03   3.856955E-03   3.785780E-03   3.793810E-03   3.771910E-03   3.810965E-03   3.735775E-03   3.686500E-03   3.791620E-03   3.727015E-03   3.665695E-03   3.563860E-03   3.671900E-03   3.670440E-03   3.613135E-03   3.592330E-03   3.602915E-03   3.578095E-03   3.382455E-03   3.428445E-03   3.543420E-03   3.487575E-03   3.443410E-03   3.561670E-03   3.545610E-03   3.673360E-03   3.615690E-03   3.628100E-03   3.658030E-03   3.586125E-03   3.710955E-03   3.764610E-03   3.762785E-03   3.705845E-03   3.602915E-03   3.613865E-03   3.691610E-03   3.704020E-03   3.679565E-03   3.660585E-03   3.615325E-03   3.656205E-03   3.659855E-03   3.601455E-03   3.627005E-03   3.652920E-03   3.781035E-03   3.738330E-03   3.689055E-03   3.529915E-03   3.577365E-03   3.641240E-03   3.637590E-03   3.594155E-03   3.593060E-03   3.672995E-03   3.591235E-03   3.643065E-03   3.583935E-03   3.651095E-03   3.562035E-03   3.514220E-03   3.568240E-03   3.592330E-03   3.644160E-03   3.648175E-03   3.664235E-03   3.635765E-03   3.640510E-03
   3.504365E-03   3.325150E-03   3.358730E-03   3.318945E-03   3.390120E-03   3.413480E-03   3.464580E-03   3.486480E-03   3.502175E-03   3.519330E-03   3.510205E-03   3.540500E-03   3.473340E-03   3.552910E-03   3.545975E-03   3.633940E-03   3.620070E-03   3.557655E-03   3.630655E-03   3.654745E-03   3.639050E-03   3.735775E-03   3.678105E-03   3.675915E-03   3.709130E-03   3.667155E-03   3.593790E-03   3.656570E-03   3.647445E-03   3.605470E-03   3.638320E-03   3.602550E-03   3.542690E-03   3.560210E-03   3.665330E-03   3.734680E-03   3.672630E-03   3.789065E-03   3.777020E-03   3.662045E-03   3.655475E-03   3.667520E-03   3.676645E-03   3.736505E-03   3.754755E-03   3.826295E-03   3.867540E-03   3.909150E-03   3.824835E-03   3.869365E-03   3.893090E-03   3.881410E-03   3.921195E-03   3.809505E-03   3.813155E-03   3.766435E-03   3.871920E-03   3.889805E-03   3.816440E-03   3.725190E-03   3.790890E-03   3.771180E-03   3.676280E-03   3.707670E-03   3.686500E-03   3.570795E-03   3.609485E-03   3.575540E-03   3.651095E-03   3.635400E-03   3.600725E-03   3.557655E-03   3.588680E-03   3.578460E-03   3.531740E-03   3.549625E-03   3.587950E-03   3.522615E-03   3.513855E-03   3.564225E-03   3.575175E-03   3.532470E-03   3.545610E-03   3.522250E-03   3.499620E-03   3.571160E-03   3.732490E-03   3.688690E-03   3.671900E-03   3.668980E-03   3.634305E-03   3.588315E-03   3.647080E-03   3.706575E-03   3.598535E-03   3.552545E-03   3.591235E-03   3.658030E-03   3.656570E-03   3.636860E-03   3.613500E-03   3.706575E-03   3.656570E-03   3.686865E-03   3.691610E-03   3.633940E-03   3.598900E-03   3.584300E-03   3.677740E-03   3.655840E-03   3.506555E-03   3.599630E-03   3.622260E-03   3.677740E-03   3.794540E-03   3.705845E-03   3.673360E-03   3.692340E-03   3.631385E-03   3.651825E-03   3.701100E-03   3.666425E-03   3.738695E-03   3.753660E-03   3.666425E-03
   3.511665E-03   3.426985E-03   3.512030E-03   3.451440E-03   3.389755E-03   3.502175E-03   3.556195E-03   3.577000E-03   3.541960E-03   3.570795E-03   3.644525E-03   3.637590E-03   3.503270E-03   3.559845E-03   3.494510E-03   3.552910E-03   3.528090E-03   3.641970E-03   3.612405E-03   3.608025E-03   3.694165E-03   3.733950E-03   3.648540E-03   3.633210E-03   3.577365E-03   3.681755E-03   3.687960E-03   3.659490E-03   3.676280E-03   3.627735E-03   3.535755E-03   3.594155E-03   3.640875E-03   3.501810E-03   3.662410E-03   3.757675E-03   3.729205E-03   3.704750E-03   3.596345E-03   3.613500E-03   3.545975E-03   3.606930E-03   3.684675E-03   3.743440E-03   3.774830E-03   3.898930E-03   3.918640E-03   3.869365E-03   3.917545E-03   3.862065E-03   3.927400E-03   3.952585E-03   3.924845E-03   3.923750E-03   3.867175E-03   3.799285E-03   3.873745E-03   3.936160E-03   3.820090E-03   3.808410E-03   3.768990E-03   3.705845E-03   3.693070E-03   3.692340E-03   3.660220E-03   3.632115E-03   3.620800E-03   3.595250E-03   3.609485E-03   3.645985E-03   3.594885E-03   3.462755E-03   3.518965E-03   3.525535E-03   3.571890E-03   3.570430E-03   3.587950E-03   3.593425E-03   3.571525E-03   3.532105E-03   3.567145E-03   3.497065E-03   3.496335E-03   3.543055E-03   3.602550E-03   3.528090E-03   3.572620E-03   3.624085E-03   3.599630E-03   3.617150E-03   3.600360E-03   3.641605E-03   3.689420E-03   3.616785E-03   3.536850E-03   3.443410E-03   3.582110E-03   3.638320E-03   3.594155E-03   3.716065E-03   3.703655E-03   3.653285E-03   3.634305E-03   3.721175E-03   3.777020E-03   3.614595E-03   3.650000E-03   3.702195E-03   3.666790E-03   3.689420E-03   3.592695E-03   3.609120E-03   3.684675E-03   3.683580E-03   3.725920E-03   3.757310E-03   3.753295E-03   3.727380E-03   3.700735E-03   3.732855E-03   3.678835E-03   3.677010E-03   3.728110E-03   3.694895E-03   3.690880E-03
   3.702560E-03   3.546340E-03   3.503635E-03   3.535755E-03   3.433190E-03   3.577365E-03   3.550355E-03   3.570065E-03   3.635765E-03   3.571525E-03   3.586855E-03   3.633575E-03   3.580285E-03   3.567145E-03   3.516045E-03   3.574445E-03   3.573715E-03   3.653285E-03   3.663870E-03   3.600725E-03   3.704750E-03   3.740885E-03   3.691610E-03   3.578460E-03   3.627005E-03   3.690150E-03   3.667520E-03   3.574080E-03   3.595615E-03   3.544515E-03   3.494145E-03   3.575540E-03   3.568605E-03   3.594885E-03   3.672630E-03   3.733585E-03   3.691610E-03   3.677375E-03   3.641970E-03   3.540865E-03   3.544880E-03   3.556925E-03   3.664235E-03   3.704385E-03   3.796365E-03   3.845275E-03   3.839435E-03   3.815710E-03   3.827390E-03   3.804030E-03   3.861335E-03   3.963535E-03   3.972660E-03   3.950395E-03   3.909515E-03   3.852210E-03   3.896375E-03   3.874840E-03   3.842355E-03   3.791255E-03   3.727745E-03   3.700005E-03   3.768990E-03   3.657300E-03   3.662775E-03   3.621895E-03   3.647810E-03   3.637590E-03   3.620800E-03   3.572985E-03   3.550720E-03   3.474435E-03   3.499985E-03   3.526265E-03   3.520790E-03   3.591600E-03   3.602550E-03   3.563130E-03   3.548530E-03   3.473705E-03   3.463120E-03   3.416035E-03   3.537580E-03   3.547070E-03   3.545245E-03   3.497065E-03   3.506920E-03   3.633940E-03   3.531740E-03   3.492320E-03   3.588315E-03   3.701830E-03   3.628465E-03   3.617880E-03   3.717160E-03   3.535755E-03   3.620070E-03   3.687230E-03   3.722270E-03   3.799285E-03   3.795270E-03   3.731760E-03   3.660220E-03   3.684310E-03   3.701830E-03   3.776290E-03   3.655110E-03   3.614230E-03   3.636130E-03   3.642335E-03   3.670075E-03   3.677375E-03   3.687595E-03   3.685405E-03   3.649635E-03   3.658395E-03   3.701465E-03   3.652190E-03   3.669710E-03   3.671535E-03   3.601090E-03   3.621530E-03   3.691245E-03   3.644160E-03   3.616055E-03
   3.723365E-03   3.583935E-03   3.606565E-03   3.573350E-03   3.530645E-03   3.546340E-03   3.631385E-03   3.620435E-03   3.611675E-03   3.584300E-03   3.605470E-03   3.624815E-03   3.671535E-03   3.555100E-03   3.645985E-03   3.621895E-03   3.540500E-03   3.577365E-03   3.576270E-03   3.551815E-03   3.588315E-03   3.693800E-03   3.636495E-03   3.649635E-03   3.622260E-03   3.692340E-03   3.639780E-03   3.599265E-03   3.564225E-03   3.475895E-03   3.611310E-03   3.609120E-03   3.599630E-03   3.656205E-03   3.693070E-03   3.655475E-03   3.686135E-03   3.685770E-03   3.574810E-03   3.613865E-03   3.629560E-03   3.557290E-03   3.556195E-03   3.731030E-03   3.842720E-03   3.866810E-03   3.859875E-03   3.860240E-03   3.904770E-03   3.912800E-03   3.890900E-03   3.933970E-03   3.967915E-03   3.931415E-03   3.880315E-03   3.907690E-03   3.902580E-03   3.875935E-03   3.829215E-03   3.700735E-03   3.562035E-03   3.663140E-03   3.734680E-03   3.628100E-03   3.579555E-03   3.589775E-03   3.575540E-03   3.568970E-03   3.583570E-03   3.557655E-03   3.571525E-03   3.546705E-03   3.458375E-03   3.527725E-03   3.516045E-03   3.499985E-03   3.599630E-03   3.582110E-03   3.568970E-03   3.559845E-03   3.520790E-03   3.499985E-03   3.521885E-03   3.681755E-03   3.671170E-03   3.581015E-03   3.509110E-03   3.648175E-03   3.506920E-03   3.520060E-03   3.509110E-03   3.550720E-03   3.556925E-03   3.666425E-03   3.658395E-03   3.593060E-03   3.613865E-03   3.652555E-03   3.689785E-03   3.760595E-03   3.843815E-03   3.883235E-03   3.747455E-03   3.742710E-03   3.761690E-03   3.784685E-03   3.690150E-03   3.631020E-03   3.563495E-03   3.671535E-03   3.756945E-03   3.755120E-03   3.664965E-03   3.669710E-03   3.611675E-03   3.711685E-03   3.650730E-03   3.601820E-03   3.545245E-03   3.526265E-03   3.588680E-03   3.531010E-03   3.605470E-03   3.644160E-03   3.623355E-03
   3.666425E-03   3.682120E-03   3.714970E-03   3.641605E-03   3.535755E-03   3.581380E-03   3.554735E-03   3.571160E-03   3.625545E-03   3.520425E-03   3.499620E-03   3.623720E-03   3.585395E-03   3.582475E-03   3.654380E-03   3.579190E-03   3.622625E-03   3.563495E-03   3.593060E-03   3.488670E-03   3.443045E-03   3.542690E-03   3.610215E-03   3.637955E-03   3.607295E-03   3.637955E-03   3.616420E-03   3.615325E-03   3.516775E-03   3.513490E-03   3.594155E-03   3.679565E-03   3.651825E-03   3.766070E-03   3.689420E-03   3.619340E-03   3.625545E-03   3.724825E-03   3.664600E-03   3.567875E-03   3.668615E-03   3.716065E-03   3.723000E-03   3.789065E-03   3.799650E-03   3.858415E-03   3.876300E-03   3.926670E-03   3.871555E-03   3.818995E-03   3.854765E-03   3.810965E-03   3.809870E-03   3.819725E-03   3.824470E-03   3.844545E-03   3.821915E-03   3.908055E-03   3.723730E-03   3.659125E-03   3.742345E-03   3.724825E-03   3.640875E-03   3.642700E-03   3.526265E-03   3.626640E-03   3.514950E-03   3.452900E-03   3.504000E-03   3.581745E-03   3.583570E-03   3.498160E-03   3.485750E-03   3.547800E-03   3.442680E-03   3.511665E-03   3.573715E-03   3.547070E-03   3.537215E-03   3.651460E-03   3.566780E-03   3.709495E-03   3.650365E-03   3.645985E-03   3.643065E-03   3.559115E-03   3.582475E-03   3.626640E-03   3.644890E-03   3.511300E-03   3.583935E-03   3.498160E-03   3.531375E-03   3.628465E-03   3.700005E-03   3.570065E-03   3.632115E-03   3.679565E-03   3.689420E-03   3.773370E-03   3.795270E-03   3.821550E-03   3.689055E-03   3.688690E-03   3.731030E-03   3.720445E-03   3.700005E-03   3.610580E-03   3.639415E-03   3.790890E-03   3.756580E-03   3.672630E-03   3.708035E-03   3.617880E-03   3.545245E-03   3.624815E-03   3.508380E-03   3.551450E-03   3.507650E-03   3.536120E-03   3.479910E-03   3.538675E-03   3.637225E-03   3.645620E-03   3.583570E-03