# WEL package for  MODFLOW-2005, generated by Flopy.
         2        50 
         0         0 # stress period 1
         2         0 # stress period 2
         5       173        78       -268000.0
         4        28        73        -67000.0
         2         0 # stress period 3
         5       163        28       -268000.0
         4        28        73        -67000.0
         1         0 # stress period 4
         4        28        73        -67000.0
