BEGIN options
END options

BEGIN dimensions
  MAXBOUND  728
END dimensions

BEGIN period  1
  1 4       0.97097071    1596.34785958      -2.00000000
  1 8       0.96975263    1713.40235154      -2.00000000
  1 9       0.97122439    1496.82287842      -2.00000000
  1 10       0.96997287    1693.13353295      -2.00000000
  1 18       0.96777551    1884.85818087      -2.00000000
  1 19       0.96627032    1779.56493078      -2.00000000
  1 20       0.96755527    1486.26864298      -2.00000000
  1 21       0.96560959    1992.27815556      -2.00000000
  1 22       0.96342819    1976.36578250      -2.00000000
  1 23       0.96386867    2067.71245990      -2.00000000
  1 24       0.96209118    2081.60550998      -2.00000000
  1 25       0.96096035    2343.71749896      -2.00000000
  1 26       0.95860263    2257.72208448      -2.00000000
  1 27       0.95929297    2326.37306203      -2.00000000
  1 28       0.95724951    2410.94350184      -2.00000000
  1 29       0.95573932    2546.08574258      -2.00000000
  1 30       0.95333076    2452.38673197      -2.00000000
  1 31       0.95415061    2477.26888838      -2.00000000
  1 32       0.95190388    2570.15910963      -2.00000000
  1 33       0.95026427    2568.34004792      -2.00000000
  1 34       0.94787831    2537.73731381      -2.00000000
  1 35       0.94869807    2538.38197919      -2.00000000
  1 36       0.94637251    2569.06972384      -2.00000000
  1 37       0.94473307    2569.42424529      -2.00000000
  1 38       0.94235379    2560.19765609      -2.00000000
  1 39       0.94317347    2559.67629499      -2.00000000
  1 40       0.94082521    2569.02347714      -2.00000000
  1 41       0.93918594    2569.48076962      -2.00000000
  1 42       0.93680860    2566.77682681      -2.00000000
  1 43       0.93762820    2566.20193319      -2.00000000
  1 44       0.93527319    2569.01833772      -2.00000000
  1 45       0.93363408    2569.47562904      -2.00000000
  1 46       0.93125727    2568.74566730      -2.00000000
  1 47       0.93207678    2568.17033270      -2.00000000
  1 48       0.92971974    2569.02347714      -2.00000000
  1 49       0.92808080    2569.48076962      -2.00000000
  1 50       0.92570410    2569.32655235      -2.00000000
  1 51       0.92652353    2568.75108765      -2.00000000
  1 52       0.92416587    2569.01833772      -2.00000000
  1 53       0.92252710    2569.47562904      -2.00000000
  1 54       0.92015039    2569.50647250      -2.00000000
  1 55       0.92096973    2568.93096750      -2.00000000
  1 56       0.91861188    2569.01833772      -2.00000000
  1 57       0.91697328    2569.48076962      -2.00000000
  1 58       0.91459650    2569.56523814      -2.00000000
  1 59       0.91541576    2568.97954973      -2.00000000
  1 60       0.91305784    2569.01319990      -2.00000000
  1 61       0.91141941    2569.48590579      -2.00000000
  1 62       0.90904257    2569.57843653      -2.00000000
  1 63       0.90986174    2568.98236347      -2.00000000
  1 64       0.90750380    2569.00806049      -2.00000000
  1 65       0.90586554    2569.49104639      -2.00000000
  1 66       0.90348863    2569.58871772      -2.00000000
  1 67       0.90430772    2568.99264228      -2.00000000
  1 68       0.90194976    2569.00806049      -2.00000000
  1 69       0.90031167    2569.48590579      -2.00000000
  1 70       0.89793468    2569.58871772      -2.00000000
  1 71       0.89875369    2568.99264228      -2.00000000
  1 72       0.89639571    2569.01319990      -2.00000000
  1 73       0.89475779    2569.48590579      -2.00000000
  1 74       0.89238073    2569.58871772      -2.00000000
  1 75       0.89319965    2568.99264228      -2.00000000
  1 76       0.89084166    2569.00806049      -2.00000000
  1 77       0.88920391    2569.49104639      -2.00000000
  1 78       0.88682678    2569.58871772      -2.00000000
  1 79       0.88764561    2568.99264228      -2.00000000
  1 80       0.88528762    2569.00806049      -2.00000000
  1 81       0.88365004    2569.48590579      -2.00000000
  1 82       0.88127283    2569.58871772      -2.00000000
  1 83       0.88209158    2568.99264228      -2.00000000
  1 84       0.87973357    2569.01319990      -2.00000000
  1 85       0.87809616    2569.49104639      -2.00000000
  1 86       0.87571888    2569.58871772      -2.00000000
  1 87       0.87653754    2568.99264228      -2.00000000
  1 88       0.87417952    2569.00806049      -2.00000000
  1 89       0.87254228    2569.48590579      -2.00000000
  1 90       0.87016493    2569.58871772      -2.00000000
  1 91       0.87098351    2568.99264228      -2.00000000
  1 92       0.86862547    2569.01319990      -2.00000000
  1 93       0.86698840    2569.49104639      -2.00000000
  1 94       0.86461098    2569.58871772      -2.00000000
  1 95       0.86542947    2568.99264228      -2.00000000
  1 96       0.86307143    2569.00806049      -2.00000000
  1 97       0.86143453    2569.48590579      -2.00000000
  1 98       0.85905703    2569.58871772      -2.00000000
  1 99       0.85987544    2568.99264228      -2.00000000
  1 100       0.85751738    2569.00806049      -2.00000000
  1 101       0.85588065    2569.49104639      -2.00000000
  1 102       0.85350308    2569.58871772      -2.00000000
  1 103       0.85432141    2568.99264228      -2.00000000
  1 104       0.85196333    2569.01319990      -2.00000000
  1 105       0.85032677    2569.48590579      -2.00000000
  1 106       0.84794913    2569.59385832      -2.00000000
  1 107       0.84876737    2568.99778168      -2.00000000
  1 108       0.84640928    2569.00806049      -2.00000000
  1 109       0.84477289    2569.49104639      -2.00000000
  1 110       0.84239517    2569.58871772      -2.00000000
  1 111       0.84321333    2568.99264228      -2.00000000
  1 112       0.84085524    2569.00806049      -2.00000000
  1 113       0.83921901    2569.48590579      -2.00000000
  1 114       0.83684123    2569.58871772      -2.00000000
  1 115       0.83765930    2568.99264228      -2.00000000
  1 116       0.83530119    2569.01319990      -2.00000000
  1 117       0.83366514    2569.48590579      -2.00000000
  1 118       0.83128728    2569.58871772      -2.00000000
  1 119       0.83210526    2568.99264228      -2.00000000
  1 120       0.82974714    2569.00806049      -2.00000000
  1 121       0.82811126    2569.49104639      -2.00000000
  1 122       0.82573333    2569.58871772      -2.00000000
  1 123       0.82655123    2568.99264228      -2.00000000
  1 124       0.82419309    2569.01319990      -2.00000000
  1 125       0.82255738    2569.48590579      -2.00000000
  1 126       0.82017938    2569.58871772      -2.00000000
  1 127       0.82099719    2568.99264228      -2.00000000
  1 128       0.81863904    2569.00806049      -2.00000000
  1 129       0.81700350    2569.49104639      -2.00000000
  1 130       0.81462543    2569.58871772      -2.00000000
  1 131       0.81544316    2568.99264228      -2.00000000
  1 132       0.81308500    2569.00806049      -2.00000000
  1 133       0.81144963    2569.48590579      -2.00000000
  1 134       0.80907148    2569.58871772      -2.00000000
  1 135       0.80988912    2568.99264228      -2.00000000
  1 136       0.80753095    2569.01319990      -2.00000000
  1 137       0.80589575    2569.49104639      -2.00000000
  1 138       0.80351753    2569.58871772      -2.00000000
  1 139       0.80433509    2568.99264228      -2.00000000
  1 140       0.80197690    2569.00806049      -2.00000000
  1 141       0.80034187    2569.48590579      -2.00000000
  1 142       0.79796358    2569.58871772      -2.00000000
  1 143       0.79878105    2568.99264228      -2.00000000
  1 144       0.79642286    2569.00806049      -2.00000000
  1 145       0.79478799    2569.49104639      -2.00000000
  1 146       0.79240963    2569.58871772      -2.00000000
  1 147       0.79322702    2568.99264228      -2.00000000
  1 148       0.79086881    2569.01319990      -2.00000000
  1 149       0.78923411    2569.48590579      -2.00000000
  1 150       0.78685568    2569.58871772      -2.00000000
  1 151       0.78767298    2568.99264228      -2.00000000
  1 152       0.78531476    2569.00806049      -2.00000000
  1 153       0.78368024    2569.49104639      -2.00000000
  1 154       0.78130173    2569.58871772      -2.00000000
  1 155       0.78211895    2568.99264228      -2.00000000
  1 156       0.77976072    2569.00806049      -2.00000000
  1 157       0.77812636    2569.48590579      -2.00000000
  1 158       0.77574778    2569.58871772      -2.00000000
  1 159       0.77656491    2568.99264228      -2.00000000
  1 160       0.77420667    2569.01319990      -2.00000000
  1 161       0.77257248    2569.49104639      -2.00000000
  1 162       0.77019383    2569.58871772      -2.00000000
  1 163       0.77101088    2568.99264228      -2.00000000
  1 164       0.76865262    2569.00806049      -2.00000000
  1 165       0.76701860    2569.48590579      -2.00000000
  1 166       0.76463987    2569.59385832      -2.00000000
  1 167       0.76545684    2568.99778168      -2.00000000
  1 168       0.76309857    2569.01319990      -2.00000000
  1 169       0.76146473    2569.48590579      -2.00000000
  1 170       0.75908592    2569.58871772      -2.00000000
  1 171       0.75990280    2568.99264228      -2.00000000
  1 172       0.75754452    2569.00806049      -2.00000000
  1 173       0.75591085    2569.49104639      -2.00000000
  1 174       0.75353197    2569.58871772      -2.00000000
  1 175       0.75434877    2568.99264228      -2.00000000
  1 176       0.75199048    2569.00806049      -2.00000000
  1 177       0.75035697    2569.48590579      -2.00000000
  1 178       0.74797802    2569.58871772      -2.00000000
  1 179       0.74879473    2568.99264228      -2.00000000
  1 180       0.74643643    2569.01319990      -2.00000000
  1 181       0.74480309    2569.49104639      -2.00000000
  1 182       0.74242407    2569.58871772      -2.00000000
  1 183       0.74324070    2568.99264228      -2.00000000
  1 184       0.74088238    2569.00806049      -2.00000000
  1 185       0.73924921    2569.48590579      -2.00000000
  1 186       0.73687012    2569.58871772      -2.00000000
  1 187       0.73768666    2568.99264228      -2.00000000
  1 188       0.73532834    2569.00806049      -2.00000000
  1 189       0.73369534    2569.49104639      -2.00000000
  1 190       0.73131617    2569.58871772      -2.00000000
  1 191       0.73213263    2568.99264228      -2.00000000
  1 192       0.72977429    2569.01319990      -2.00000000
  1 193       0.72814146    2569.48590579      -2.00000000
  1 194       0.72576222    2569.58871772      -2.00000000
  1 195       0.72657859    2568.99264228      -2.00000000
  1 196       0.72422024    2569.00806049      -2.00000000
  1 197       0.72258758    2569.49104639      -2.00000000
  1 198       0.72020827    2569.58871772      -2.00000000
  1 199       0.72102456    2568.99264228      -2.00000000
  1 200       0.71866620    2569.00806049      -2.00000000
  1 201       0.71703370    2569.48590579      -2.00000000
  1 202       0.71465432    2569.58871772      -2.00000000
  1 203       0.71547053    2568.99264228      -2.00000000
  1 204       0.71311215    2569.01319990      -2.00000000
  1 205       0.71147983    2569.49104639      -2.00000000
  1 206       0.70910037    2569.58871772      -2.00000000
  1 207       0.70991649    2568.99264228      -2.00000000
  1 208       0.70755810    2569.00806049      -2.00000000
  1 209       0.70592595    2569.48590579      -2.00000000
  1 210       0.70354642    2569.58871772      -2.00000000
  1 211       0.70436246    2568.99264228      -2.00000000
  1 212       0.70200405    2569.01319990      -2.00000000
  1 213       0.70037207    2569.48590579      -2.00000000
  1 214       0.69799247    2569.58871772      -2.00000000
  1 215       0.69880842    2568.99264228      -2.00000000
  1 216       0.69645000    2569.00806049      -2.00000000
  1 217       0.69481820    2569.49104639      -2.00000000
  1 218       0.69243852    2569.59385832      -2.00000000
  1 219       0.69325438    2568.99778168      -2.00000000
  1 220       0.69089596    2569.00806049      -2.00000000
  1 221       0.68926431    2569.48590579      -2.00000000
  1 222       0.68688457    2569.58871772      -2.00000000
  1 223       0.68770034    2568.99264228      -2.00000000
  1 224       0.68534191    2569.01319990      -2.00000000
  1 225       0.68371044    2569.49104639      -2.00000000
  1 226       0.68133061    2569.58871772      -2.00000000
  1 227       0.68214631    2568.99264228      -2.00000000
  1 228       0.67978786    2569.00806049      -2.00000000
  1 229       0.67815656    2569.48590579      -2.00000000
  1 230       0.67577667    2569.58871772      -2.00000000
  1 231       0.67659227    2568.99264228      -2.00000000
  1 232       0.67423381    2569.00806049      -2.00000000
  1 233       0.67260268    2569.49104639      -2.00000000
  1 234       0.67022271    2569.58871772      -2.00000000
  1 235       0.67103824    2568.99264228      -2.00000000
  1 236       0.66867977    2569.01319990      -2.00000000
  1 237       0.66704880    2569.48590579      -2.00000000
  1 238       0.66466877    2569.58871772      -2.00000000
  1 239       0.66548420    2568.99264228      -2.00000000
  1 240       0.66312572    2569.00806049      -2.00000000
  1 241       0.66149493    2569.49104639      -2.00000000
  1 242       0.65911481    2569.58871772      -2.00000000
  1 243       0.65993017    2568.99264228      -2.00000000
  1 244       0.65757167    2569.00806049      -2.00000000
  1 245       0.65594105    2569.48590579      -2.00000000
  1 246       0.65356087    2569.58871772      -2.00000000
  1 247       0.65437614    2568.99264228      -2.00000000
  1 248       0.65201763    2569.01319990      -2.00000000
  1 249       0.65038717    2569.49104639      -2.00000000
  1 250       0.64800691    2569.58871772      -2.00000000
  1 251       0.64882210    2568.99264228      -2.00000000
  1 252       0.64646358    2569.00806049      -2.00000000
  1 253       0.64483329    2569.48590579      -2.00000000
  1 254       0.64245297    2569.58871772      -2.00000000
  1 255       0.64326807    2568.99264228      -2.00000000
  1 256       0.64090953    2569.01319990      -2.00000000
  1 257       0.63927942    2569.48590579      -2.00000000
  1 258       0.63689902    2569.58871772      -2.00000000
  1 259       0.63771403    2568.99264228      -2.00000000
  1 260       0.63535548    2569.00806049      -2.00000000
  1 261       0.63372554    2569.49104639      -2.00000000
  1 262       0.63134507    2569.58871772      -2.00000000
  1 263       0.63216000    2568.99264228      -2.00000000
  1 264       0.62980144    2569.00806049      -2.00000000
  1 265       0.62817166    2569.48590579      -2.00000000
  1 266       0.62579112    2569.58871772      -2.00000000
  1 267       0.62660596    2568.99264228      -2.00000000
  1 268       0.62424739    2569.01319990      -2.00000000
  1 269       0.62261779    2569.49104639      -2.00000000
  1 270       0.62023716    2569.59385832      -2.00000000
  1 271       0.62105192    2568.99778168      -2.00000000
  1 272       0.61869334    2569.00806049      -2.00000000
  1 273       0.61706390    2569.48590579      -2.00000000
  1 274       0.61468321    2569.58871772      -2.00000000
  1 275       0.61549789    2568.99264228      -2.00000000
  1 276       0.61313929    2569.00806049      -2.00000000
  1 277       0.61151003    2569.49104639      -2.00000000
  1 278       0.60912926    2569.58871772      -2.00000000
  1 279       0.60994385    2568.99264228      -2.00000000
  1 280       0.60758524    2569.01319990      -2.00000000
  1 281       0.60595615    2569.48590579      -2.00000000
  1 282       0.60357531    2569.59605513      -2.00000000
  1 283       0.60438981    2568.98982634      -2.00000000
  1 284       0.60203120    2568.99778327      -2.00000000
  1 285       0.60040227    2569.50132316      -2.00000000
  1 286       0.59802136    2569.59899488      -2.00000000
  1 287       0.59883578    2568.98236512      -2.00000000
  1 288       0.59647715    2569.00292265      -2.00000000
  1 289       0.59484839    2569.49618255      -2.00000000
  1 290       0.59246741    2569.59899488      -2.00000000
  1 291       0.59328174    2568.98236512      -2.00000000
  1 292       0.59092310    2568.99778327      -2.00000000
  1 293       0.58929451    2569.50132316      -2.00000000
  1 294       0.58691346    2569.59899488      -2.00000000
  1 295       0.58772771    2568.98236512      -2.00000000
  1 296       0.58536906    2568.99778327      -2.00000000
  1 297       0.58374064    2569.49618255      -2.00000000
  1 298       0.58135951    2569.59899488      -2.00000000
  1 299       0.58217368    2568.98236512      -2.00000000
  1 300       0.57981501    2569.00292265      -2.00000000
  1 301       0.57818676    2569.49618255      -2.00000000
  1 302       0.57580556    2569.59899488      -2.00000000
  1 303       0.57661964    2568.98236512      -2.00000000
  1 304       0.57426096    2568.99778327      -2.00000000
  1 305       0.57263289    2569.50132316      -2.00000000
  1 306       0.57025161    2569.59899488      -2.00000000
  1 307       0.57106561    2568.98236512      -2.00000000
  1 308       0.56870691    2568.99778327      -2.00000000
  1 309       0.56707901    2569.49618255      -2.00000000
  1 310       0.56469766    2569.59899488      -2.00000000
  1 311       0.56551157    2568.98236512      -2.00000000
  1 312       0.56315287    2569.00292265      -2.00000000
  1 313       0.56152513    2569.50132316      -2.00000000
  1 314       0.55914371    2569.60413550      -2.00000000
  1 315       0.55995753    2568.98750450      -2.00000000
  1 316       0.55759881    2568.99778327      -2.00000000
  1 317       0.55597125    2569.49618255      -2.00000000
  1 318       0.55358976    2569.59899488      -2.00000000
  1 319       0.55440350    2568.98236512      -2.00000000
  1 320       0.55204477    2568.99778327      -2.00000000
  1 321       0.55041737    2569.50132316      -2.00000000
  1 322       0.54803580    2569.59899488      -2.00000000
  1 323       0.54884946    2568.98236512      -2.00000000
  1 324       0.54649072    2569.00292265      -2.00000000
  1 325       0.54486349    2569.49618255      -2.00000000
  1 326       0.54248186    2569.59899488      -2.00000000
  1 327       0.54329543    2568.98236512      -2.00000000
  1 328       0.54093667    2568.99778327      -2.00000000
  1 329       0.53930961    2569.50132316      -2.00000000
  1 330       0.53692790    2569.59899488      -2.00000000
  1 331       0.53774139    2568.98236512      -2.00000000
  1 332       0.53538263    2569.00292265      -2.00000000
  1 333       0.53375574    2569.49618255      -2.00000000
  1 334       0.53137396    2569.59899488      -2.00000000
  1 335       0.53218736    2568.98236512      -2.00000000
  1 336       0.52982858    2568.99778327      -2.00000000
  1 337       0.52820186    2569.50132316      -2.00000000
  1 338       0.52582000    2569.59899488      -2.00000000
  1 339       0.52663332    2568.98236512      -2.00000000
  1 340       0.52427453    2568.99778327      -2.00000000
  1 341       0.52264798    2569.49618255      -2.00000000
  1 342       0.52026606    2569.59899488      -2.00000000
  1 343       0.52107929    2568.98236512      -2.00000000
  1 344       0.51872049    2569.00292265      -2.00000000
  1 345       0.51709410    2569.50132316      -2.00000000
  1 346       0.51471210    2569.59899488      -2.00000000
  1 347       0.51552525    2568.98236512      -2.00000000
  1 348       0.51316644    2568.99778327      -2.00000000
  1 349       0.51154023    2569.49618255      -2.00000000
  1 350       0.50915816    2569.59899488      -2.00000000
  1 351       0.50997122    2568.98236512      -2.00000000
  1 352       0.50761239    2568.99778327      -2.00000000
  1 353       0.50598635    2569.49618255      -2.00000000
  1 354       0.50360421    2569.59899488      -2.00000000
  1 355       0.50441719    2568.98236512      -2.00000000
  1 356       0.50205834    2569.00292265      -2.00000000
  1 357       0.50043247    2569.50132316      -2.00000000
  1 358       0.49805026    2569.59899488      -2.00000000
  1 359       0.49886315    2568.98236512      -2.00000000
  1 360       0.49650430    2568.99778327      -2.00000000
  1 361       0.49487860    2569.49618255      -2.00000000
  1 362       0.49249630    2569.60413550      -2.00000000
  1 363       0.49330911    2568.98750450      -2.00000000
  1 364       0.49095025    2568.99778327      -2.00000000
  1 365       0.48932471    2569.50132316      -2.00000000
  1 366       0.48694235    2569.59899488      -2.00000000
  1 367       0.48775507    2568.98236512      -2.00000000
  1 368       0.48539620    2569.00292265      -2.00000000
  1 369       0.48377084    2569.49618255      -2.00000000
  1 370       0.48138840    2569.59899488      -2.00000000
  1 371       0.48220104    2568.98236512      -2.00000000
  1 372       0.47984215    2568.99778327      -2.00000000
  1 373       0.47821696    2569.50132316      -2.00000000
  1 374       0.47583445    2569.59899488      -2.00000000
  1 375       0.47664700    2568.98236512      -2.00000000
  1 376       0.47428810    2569.00292265      -2.00000000
  1 377       0.47266308    2569.49618255      -2.00000000
  1 378       0.47028050    2569.59899488      -2.00000000
  1 379       0.47109297    2568.98236512      -2.00000000
  1 380       0.46873406    2568.99778327      -2.00000000
  1 381       0.46710920    2569.50132316      -2.00000000
  1 382       0.46472655    2569.59899488      -2.00000000
  1 383       0.46553893    2568.98236512      -2.00000000
  1 384       0.46318001    2568.99778327      -2.00000000
  1 385       0.46155533    2569.49618255      -2.00000000
  1 386       0.45917260    2569.59899488      -2.00000000
  1 387       0.45998490    2568.98236512      -2.00000000
  1 388       0.45762596    2569.00292265      -2.00000000
  1 389       0.45600145    2569.50132316      -2.00000000
  1 390       0.45361865    2569.59899488      -2.00000000
  1 391       0.45443086    2568.98236512      -2.00000000
  1 392       0.45207191    2568.99778327      -2.00000000
  1 393       0.45044757    2569.49618255      -2.00000000
  1 394       0.44806470    2569.59899488      -2.00000000
  1 395       0.44887683    2568.98236512      -2.00000000
  1 396       0.44651787    2568.99778327      -2.00000000
  1 397       0.44489370    2569.49618255      -2.00000000
  1 398       0.44251075    2569.59899488      -2.00000000
  1 399       0.44332280    2568.98236512      -2.00000000
  1 400       0.44096382    2569.00292265      -2.00000000
  1 401       0.43933982    2569.50132316      -2.00000000
  1 402       0.43695680    2569.60413550      -2.00000000
  1 403       0.43776876    2568.98750450      -2.00000000
  1 404       0.43540977    2568.99778327      -2.00000000
  1 405       0.43378594    2569.49618255      -2.00000000
  1 406       0.43140284    2569.59899488      -2.00000000
  1 407       0.43221472    2568.98236512      -2.00000000
  1 408       0.42985573    2568.99778327      -2.00000000
  1 409       0.42823206    2569.50132316      -2.00000000
  1 410       0.42584889    2569.59899488      -2.00000000
  1 411       0.42666069    2568.98236512      -2.00000000
  1 412       0.42430168    2569.00292265      -2.00000000
  1 413       0.42267818    2569.49618255      -2.00000000
  1 414       0.42029494    2569.59899488      -2.00000000
  1 415       0.42110665    2568.98236512      -2.00000000
  1 416       0.41874763    2568.99778327      -2.00000000
  1 417       0.41712430    2569.50132316      -2.00000000
  1 418       0.41474099    2569.59899488      -2.00000000
  1 419       0.41555261    2568.98236512      -2.00000000
  1 420       0.41319358    2569.00292265      -2.00000000
  1 421       0.41157043    2569.49618255      -2.00000000
  1 422       0.40918704    2569.59899488      -2.00000000
  1 423       0.40999858    2568.98236512      -2.00000000
  1 424       0.40763953    2568.99778327      -2.00000000
  1 425       0.40601655    2569.50132316      -2.00000000
  1 426       0.40363279    2570.03735353      -2.00000000
  1 427       0.40444424    2569.39020006      -2.00000000
  1 428       0.40208519    2568.96695159      -2.00000000
  1 429       0.40046237    2569.52701280      -2.00000000
  1 430       0.39807860    2569.53293387      -2.00000000
  1 431       0.39888997    2568.87493801      -2.00000000
  1 432       0.39653120    2568.99264541      -2.00000000
  1 433       0.39490855    2569.51159993      -2.00000000
  1 434       0.39252453    2569.87066415      -2.00000000
  1 435       0.39333581    2569.21314302      -2.00000000
  1 436       0.39097697    2568.96695159      -2.00000000
  1 437       0.38935450    2569.52701280      -2.00000000
  1 438       0.38697055    2569.41984187      -2.00000000
  1 439       0.38778174    2568.76187191      -2.00000000
  1 440       0.38542307    2568.98750604      -2.00000000
  1 441       0.38380076    2569.50645930      -2.00000000
  1 442       0.38141660    2569.81411509      -2.00000000
  1 443       0.38222771    2569.15661019      -2.00000000
  1 444       0.37986889    2568.97209092      -2.00000000
  1 445       0.37824675    2569.53215348      -2.00000000
  1 446       0.37586267    2569.39414004      -2.00000000
  1 447       0.37667370    2568.73617563      -2.00000000
  1 448       0.37431500    2568.98750604      -2.00000000
  1 449       0.37269303    2569.50645930      -2.00000000
  1 450       0.37030875    2569.80897309      -2.00000000
  1 451       0.37111969    2569.15147030      -2.00000000
  1 452       0.36876081    2568.97209092      -2.00000000
  1 453       0.36713902    2569.53215348      -2.00000000
  1 454       0.36475483    2569.38900068      -2.00000000
  1 455       0.36556569    2568.73103688      -2.00000000
  1 456       0.36320693    2568.98750604      -2.00000000
  1 457       0.36158530    2569.50645930      -2.00000000
  1 458       0.35920091    2569.80383118      -2.00000000
  1 459       0.36001169    2569.14633032      -2.00000000
  1 460       0.35765276    2568.96695159      -2.00000000
  1 461       0.35603130    2569.53215348      -2.00000000
  1 462       0.35364700    2569.38900191      -2.00000000
  1 463       0.35445769    2568.73103750      -2.00000000
  1 464       0.35209887    2568.99264541      -2.00000000
  1 465       0.35047758    2569.50645930      -2.00000000
  1 466       0.34809308    2569.80897058      -2.00000000
  1 467       0.34890368    2569.15146902      -2.00000000
  1 468       0.34654469    2568.96695159      -2.00000000
  1 469       0.34492357    2569.53215348      -2.00000000
  1 470       0.34253916    2569.38900318      -2.00000000
  1 471       0.34334967    2568.73103812      -2.00000000
  1 472       0.34099081    2568.98750604      -2.00000000
  1 473       0.33936986    2569.50645930      -2.00000000
  1 474       0.33698524    2569.80382867      -2.00000000
  1 475       0.33779567    2569.14632908      -2.00000000
  1 476       0.33543663    2568.97209092      -2.00000000
  1 477       0.33381585    2569.53215348      -2.00000000
  1 478       0.33143132    2569.38900442      -2.00000000
  1 479       0.33224167    2568.73103877      -2.00000000
  1 480       0.32988274    2568.98750604      -2.00000000
  1 481       0.32826213    2569.50645930      -2.00000000
  1 482       0.32587741    2569.80382744      -2.00000000
  1 483       0.32668767    2569.14632843      -2.00000000
  1 484       0.32432857    2568.96695159      -2.00000000
  1 485       0.32270813    2569.52701280      -2.00000000
  1 486       0.32032349    2569.39414637      -2.00000000
  1 487       0.32113367    2568.73617871      -2.00000000
  1 488       0.31877468    2568.99264541      -2.00000000
  1 489       0.31715441    2569.51159993      -2.00000000
  1 490       0.31476957    2569.80382616      -2.00000000
  1 491       0.31557966    2569.14632781      -2.00000000
  1 492       0.31322050    2568.96695159      -2.00000000
  1 493       0.31160040    2569.52701280      -2.00000000
  1 494       0.30921565    2569.38900697      -2.00000000
  1 495       0.31002566    2568.73104001      -2.00000000
  1 496       0.30766662    2568.99264541      -2.00000000
  1 497       0.30604669    2569.51159993      -2.00000000
  1 498       0.30366173    2569.80382493      -2.00000000
  1 499       0.30447166    2569.14632715      -2.00000000
  1 500       0.30211244    2568.96695159      -2.00000000
  1 501       0.30049268    2569.52701280      -2.00000000
  1 502       0.29810782    2569.38900820      -2.00000000
  1 503       0.29891766    2568.73104067      -2.00000000
  1 504       0.29655856    2568.98750604      -2.00000000
  1 505       0.29493897    2569.51159993      -2.00000000
  1 506       0.29255390    2569.80382370      -2.00000000
  1 507       0.29336366    2569.14632653      -2.00000000
  1 508       0.29100438    2568.97209092      -2.00000000
  1 509       0.28938496    2569.52701280      -2.00000000
  1 510       0.28699998    2569.39415011      -2.00000000
  1 511       0.28780965    2568.73618064      -2.00000000
  1 512       0.28545049    2568.98750604      -2.00000000
  1 513       0.28383124    2569.51159993      -2.00000000
  1 514       0.28144606    2569.80382242      -2.00000000
  1 515       0.28225564    2569.14632592      -2.00000000
  1 516       0.27989632    2568.96695159      -2.00000000
  1 517       0.27827723    2569.52701280      -2.00000000
  1 518       0.27589214    2569.38901071      -2.00000000
  1 519       0.27670164    2568.73104190      -2.00000000
  1 520       0.27434243    2568.99264541      -2.00000000
  1 521       0.27272352    2569.51159993      -2.00000000