BEGIN options
END options

BEGIN dimensions
  MAXBOUND  4590
END dimensions

BEGIN period  1
  1 4416      11.00000000
  1 4417      11.00000000
  1 4418      11.00000000
  1 4419      11.00000000
  1 4420      11.00000000
  1 4421      11.00000000
  1 4422      11.00000000
  1 4423      11.00000000
  1 4424      11.00000000
  1 4425      11.00000000
  1 4426      11.00000000
  1 4427      11.00000000
  1 4428      11.00000000
  1 4429      11.00000000
  1 4430      11.00000000
  1 4431      11.00000000
  1 4432      11.00000000
  1 4433      11.00000000
  1 4434      11.00000000
  1 4435      11.00000000
  1 4436      11.00000000
  1 4437      11.00000000
  1 4438      11.00000000
  1 4439      11.00000000
  1 4440      11.00000000
  1 4441      11.00000000
  1 4442      11.00000000
  1 4443      11.00000000
  1 4444      11.00000000
  1 4445      11.00000000
  1 4446      11.00000000
  1 4447      11.00000000
  1 4448      11.00000000
  1 4449      11.00000000
  1 4450      11.00000000
  1 4451      11.00000000
  1 4452      11.00000000
  1 4453      11.00000000
  1 4454      11.00000000
  1 4455      11.00000000
  1 4456      11.00000000
  1 4457      11.00000000
  1 4458      11.00000000
  1 4459      11.00000000
  1 4460      11.00000000
  1 4461      11.00000000
  1 4462      11.00000000
  1 4463      11.00000000
  1 4464      11.00000000
  1 4465      11.00000000
  1 4466      11.00000000
  1 4467      11.00000000
  1 4468      11.00000000
  1 4469      11.00000000
  1 4470      11.00000000
  1 4471      11.00000000
  1 4472      11.00000000
  1 4473      11.00000000
  1 4474      11.00000000
  1 4475      11.00000000
  1 4476      11.00000000
  1 4477      11.00000000
  1 4478      11.00000000
  1 4479      11.00000000
  1 4480      11.00000000
  1 4481      11.00000000
  1 4482      11.00000000
  1 4483      11.00000000
  1 4484      11.00000000
  1 4485      11.00000000
  1 4486      11.00000000
  1 4487      11.00000000
  1 4488      11.00000000
  1 4489      11.00000000
  1 4490      11.00000000
  1 4491      11.00000000
  1 4492      11.00000000
  1 4493      11.00000000
  1 4494      11.00000000
  1 4495      11.00000000
  1 4496      11.00000000
  1 4497      11.00000000
  1 4498      11.00000000
  1 4499      11.00000000
  1 4500      11.00000000
  1 4501      11.00000000
  1 4502      11.00000000
  1 4503      11.00000000
  1 4504      11.00000000
  1 4505      11.00000000
  1 4506      11.00000000
  1 4507      11.00000000
  1 4508      11.00000000
  1 4509      11.00000000
  1 4510      11.00000000
  1 4511      11.00000000
  1 4512      11.00000000
  1 4513      11.00000000
  1 4514      11.00000000
  1 4515      11.00000000
  1 4516      11.00000000
  1 4517      11.00000000
  1 4518      11.00000000
  1 4519      11.00000000
  1 4520      11.00000000
  1 4521      11.00000000
  1 4522      11.00000000
  1 4523      11.00000000
  1 4524      11.00000000
  1 4525      11.00000000
  1 4526      11.00000000
  1 4527      11.00000000
  1 4528      11.00000000
  1 4529      11.00000000
  1 4530      11.00000000
  1 4531      11.00000000
  1 4532      11.00000000
  1 4533      11.00000000
  1 4534      11.00000000
  1 4535      11.00000000
  1 4536      11.00000000
  1 4537      11.00000000
  1 4538      11.00000000
  1 4539      11.00000000
  1 4540      11.00000000
  1 4541      11.00000000
  1 4542      11.00000000
  1 4543      11.00000000
  1 4544      11.00000000
  1 4545      11.00000000
  1 4546      11.00000000
  1 4547      11.00000000
  1 4548      11.00000000
  1 4549      11.00000000
  1 4550      11.00000000
  1 4551      11.00000000
  1 4552      11.00000000
  1 4553      11.00000000
  1 4554      11.00000000
  1 4555      11.00000000
  1 4556      11.00000000
  1 4557      11.00000000
  1 4558      11.00000000
  1 4559      11.00000000
  1 4560      11.00000000
  1 4561      11.00000000
  1 4562      11.00000000
  1 4563      11.00000000
  1 4564      11.00000000
  1 4565      11.00000000
  1 4566      11.00000000
  1 4567      11.00000000
  1 4568      11.00000000
  1 4569      11.00000000
  1 4570      11.00000000
  1 4571      11.00000000
  1 4572      11.00000000
  1 4573      11.00000000
  1 4574      11.00000000
  1 4575      11.00000000
  1 4576      11.00000000
  1 4577      11.00000000
  1 4578      11.00000000
  1 4579      11.00000000
  1 4580      11.00000000
  1 4581      11.00000000
  1 4582      11.00000000
  1 4583      11.00000000
  1 4584      11.00000000
  1 4585      11.00000000
  1 4586      11.00000000
  1 4587      11.00000000
  1 4588      11.00000000
  1 4589      11.00000000
  1 4590      11.00000000
  1 4591      11.00000000
  1 4592      11.00000000
  1 4593      11.00000000
  1 4594      11.00000000
  1 4595      11.00000000
  1 4596      11.00000000
  1 4597      11.00000000
  1 4598      11.00000000
  1 4599      11.00000000
  1 4600      11.00000000
  1 4601      11.00000000
  1 4602      11.00000000
  1 4603      11.00000000
  1 4604      11.00000000
  1 4605      11.00000000
  1 4606      11.00000000
  1 4607      11.00000000
  1 4608      11.00000000
  1 4609      11.00000000
  1 4610      11.00000000
  1 4611      11.00000000
  1 4612      11.00000000
  1 4613      11.00000000
  1 4614      11.00000000
  1 4615      11.00000000
  1 4616      11.00000000
  1 4617      11.00000000
  1 4618      11.00000000
  1 4619      11.00000000
  1 4620      11.00000000
  1 4621      11.00000000
  1 4622      11.00000000
  1 4623      11.00000000
  1 4624      11.00000000
  1 4625      11.00000000
  1 4626      11.00000000
  1 4627      11.00000000
  1 4628      11.00000000
  1 4629      11.00000000
  1 4630      11.00000000
  1 4631      11.00000000
  1 4632      11.00000000
  1 4633      11.00000000
  1 4634      11.00000000
  1 4635      11.00000000
  1 4636      11.00000000
  1 4637      11.00000000
  1 4638      11.00000000
  1 4639      11.00000000
  1 4640      11.00000000
  1 4641      11.00000000
  1 4642      11.00000000
  1 4643      11.00000000
  1 4644      11.00000000
  1 4645      11.00000000
  1 4646      11.00000000
  1 4647      11.00000000
  1 4648      11.00000000
  1 4649      11.00000000
  1 4650      11.00000000
  1 4651      11.00000000
  1 4652      11.00000000
  1 4653      11.00000000
  1 4654      11.00000000
  1 4655      11.00000000
  1 4656      11.00000000
  1 4657      11.00000000
  1 4658      11.00000000
  1 4659      11.00000000
  1 4660      11.00000000
  1 4661      11.00000000
  1 4662      11.00000000
  1 4663      11.00000000
  1 4664      11.00000000
  1 4665      11.00000000
  1 4666      11.00000000
  1 4667      11.00000000
  1 4668      11.00000000
  1 4669      11.00000000
  1 4670      11.00000000
  1 4671      11.00000000
  1 4672      11.00000000
  1 4673      11.00000000
  1 4674      11.00000000
  1 4675      11.00000000
  1 4676      11.00000000
  1 4677      11.00000000
  1 4678      11.00000000
  1 4679      11.00000000
  1 4680      11.00000000
  1 4681      11.00000000
  1 4682      11.00000000
  1 4683      11.00000000
  1 4684      11.00000000
  1 4685      11.00000000
  1 4686      11.00000000
  1 4687      11.00000000
  1 4688      11.00000000
  1 4689      11.00000000
  1 4690      11.00000000
  1 4691      11.00000000
  1 4692      11.00000000
  1 4693      11.00000000
  1 4694      11.00000000
  1 4695      11.00000000
  1 4696      11.00000000
  1 4697      11.00000000
  1 4698      11.00000000
  1 4699      11.00000000
  1 4700      11.00000000
  1 4701      11.00000000
  1 4702      11.00000000
  1 4703      11.00000000
  1 4704      11.00000000
  1 4705      11.00000000
  1 4706      11.00000000
  1 4707      11.00000000
  1 4708      11.00000000
  1 4709      11.00000000
  1 4710      11.00000000
  1 4711      11.00000000
  1 4712      11.00000000
  1 4713      11.00000000
  1 4714      11.00000000
  1 4715      11.00000000
  1 4716      11.00000000
  1 4717      11.00000000
  1 4718      11.00000000
  1 4719      11.00000000
  1 4720      11.00000000
  1 4721      11.00000000
  1 4722      11.00000000
  1 4723      11.00000000
  1 4724      11.00000000
  1 4725      11.00000000
  1 4726      11.00000000
  1 4727      11.00000000
  1 4728      11.00000000
  1 4729      11.00000000
  1 4730      11.00000000
  1 4731      11.00000000
  1 4732      11.00000000
  1 4733      11.00000000
  1 4734      11.00000000
  1 4735      11.00000000
  1 4736      11.00000000
  1 4737      11.00000000
  1 4738      11.00000000
  1 4739      11.00000000
  1 4740      11.00000000
  1 4741      11.00000000
  1 4742      11.00000000
  1 4743      11.00000000
  1 4744      11.00000000
  1 4745      11.00000000
  1 4746      11.00000000
  1 4747      11.00000000
  1 4748      11.00000000
  1 4749      11.00000000
  1 4750      11.00000000
  1 4751      11.00000000
  1 4752      11.00000000
  1 4753      11.00000000
  1 4754      11.00000000
  1 4755      11.00000000
  1 4756      11.00000000
  1 4757      11.00000000
  1 4758      11.00000000
  1 4759      11.00000000
  1 4760      11.00000000
  1 4761      11.00000000
  1 4762      11.00000000
  1 4763      11.00000000
  1 4764      11.00000000
  1 4765      11.00000000
  1 4766      11.00000000
  1 4767      11.00000000
  1 4768      11.00000000
  1 4769      11.00000000
  1 4770      11.00000000
  1 4771      11.00000000
  1 4772      11.00000000
  1 4773      11.00000000
  1 4774      11.00000000
  1 4775      11.00000000
  1 4776      11.00000000
  1 4777      11.00000000
  1 4778      11.00000000
  1 4779      11.00000000
  1 4780      11.00000000
  1 4781      11.00000000
  1 4782      11.00000000
  1 4783      11.00000000
  1 4784      11.00000000
  1 4785      11.00000000
  1 4786      11.00000000
  1 4787      11.00000000
  1 4788      11.00000000
  1 4789      11.00000000
  1 4790      11.00000000
  1 4791      11.00000000
  1 4792      11.00000000
  1 4793      11.00000000
  1 4794      11.00000000
  1 4795      11.00000000
  1 4796      11.00000000
  1 4797      11.00000000
  1 4798      11.00000000
  1 4799      11.00000000
  1 4800      11.00000000
  1 4801      11.00000000
  1 4802      11.00000000
  1 4803      11.00000000
  1 4804      11.00000000
  1 4805      11.00000000
  1 4806      11.00000000
  1 4807      11.00000000
  1 4808      11.00000000
  1 4809      11.00000000
  1 4810      11.00000000
  1 4811      11.00000000
  1 4812      11.00000000
  1 4813      11.00000000
  1 4814      11.00000000
  1 4815      11.00000000
  1 4816      11.00000000
  1 4817      11.00000000
  1 4818      11.00000000
  1 4819      11.00000000
  1 4820      11.00000000
  1 4821      11.00000000
  1 4822      11.00000000
  1 4823      11.00000000
  1 4824      11.00000000
  1 4825      11.00000000
  1 4826      11.00000000
  1 4827      11.00000000
  1 4828      11.00000000
  1 4829      11.00000000
  1 4830      11.00000000
  1 4831      11.00000000
  1 4832      11.00000000
  1 4833      11.00000000
  1 4834      11.00000000
  1 4835      11.00000000
  1 4836      11.00000000
  1 4837      11.00000000
  1 4838      11.00000000
  1 4839      11.00000000
  1 4840      11.00000000
  1 4841      11.00000000
  1 4842      11.00000000
  1 4843      11.00000000
  1 4844      11.00000000
  1 4845      11.00000000
  1 4846      11.00000000
  1 4847      11.00000000
  1 4848      11.00000000
  1 4849      11.00000000
  1 4850      11.00000000
  1 4851      11.00000000
  1 4852      11.00000000
  1 4853      11.00000000
  1 4854      11.00000000
  1 4855      11.00000000
  1 4856      11.00000000
  1 4857      11.00000000
  1 4858      11.00000000
  1 4859      11.00000000
  1 4860      11.00000000
  1 4861      11.00000000
  1 4862      11.00000000
  1 4863      11.00000000
  1 4864      11.00000000
  1 4865      11.00000000
  1 4866      11.00000000
  1 4867      11.00000000
  1 4868      11.00000000
  1 4869      11.00000000
  1 4870      11.00000000
  1 4871      11.00000000
  1 4872      11.00000000
  1 4873      11.00000000
  1 4874      11.00000000
  1 4875      11.00000000
  1 4876      11.00000000
  1 4877      11.00000000
  1 4878      11.00000000
  1 4879      11.00000000
  1 4880      11.00000000
  1 4881      11.00000000
  1 4882      11.00000000
  1 4883      11.00000000
  1 4884      11.00000000
  1 4885      11.00000000
  1 4886      11.00000000
  1 4887      11.00000000
  1 4888      11.00000000
  1 4889      11.00000000
  1 4890      11.00000000
  1 4891      11.00000000
  1 4892      11.00000000
  1 4893      11.00000000
  1 4894      11.00000000
  1 4895      11.00000000
  1 4896      11.00000000
  1 4897      11.00000000
  1 4898      11.00000000
  1 4899      11.00000000
  1 4900      11.00000000
  1 4901      11.00000000
  1 4902      11.00000000
  1 4903      11.00000000
  1 4904      11.00000000
  1 4905      11.00000000
  1 4906      11.00000000
  1 4907      11.00000000
  1 4908      11.00000000
  1 4909      11.00000000
  1 4910      11.00000000
  1 4911      11.00000000
  1 4912      11.00000000
  1 4913      11.00000000
  1 4914      11.00000000
  1 4915      11.00000000
  1 4916      11.00000000
  1 4917      11.00000000
  1 4918      11.00000000
  1 4919      11.00000000
  1 4920      11.00000000
  1 4921      11.00000000
  1 4922      11.00000000
  1 4923      11.00000000
  1 4924      11.00000000
  1 4925      11.00000000
  1 4926      11.00000000
  1 4927      11.00000000
  1 4928      11.00000000
  1 4929      11.00000000
  1 4930      11.00000000
  1 4931      11.00000000
  1 4932      11.00000000
  1 4933      11.00000000
  1 4934      11.00000000
  1 4935      11.00000000
  1 4936      11.00000000
  1 4937      11.00000000
  1 4938      11.00000000
  1 4939      11.00000000
  1 4940      11.00000000
  1 4941      11.00000000
  1 4942      11.00000000
  1 4943      11.00000000
  1 4944      11.00000000
  1 4945      11.00000000
  1 4946      11.00000000
  1 4947      11.00000000
  1 4948      11.00000000
  1 4949      11.00000000
  1 4950      11.00000000
  1 4951      11.00000000
  1 4952      11.00000000
  1 4953      11.00000000
  1 4954      11.00000000
  1 4955      11.00000000
  1 4956      11.00000000
  1 4957      11.00000000
  1 4958      11.00000000
  1 4959      11.00000000
  1 4960      11.00000000
  1 4961      11.00000000
  1 4962      11.00000000
  1 4963      11.00000000
  1 4964      11.00000000
  1 4965      11.00000000
  1 4966      11.00000000
  1 4967      11.00000000
  1 4968      11.00000000
  1 4969      11.00000000
  1 4970      11.00000000
  1 4971      11.00000000
  1 4972      11.00000000
  1 4973      11.00000000
  1 4974      11.00000000
  1 4975      11.00000000
  1 4976      11.00000000
  1 4977      11.00000000
  1 4978      11.00000000
  1 4979      11.00000000
  1 4980      11.00000000
  1 4981      11.00000000
  1 4982      11.00000000
  1 4983      11.00000000
  1 4984      11.00000000
  1 4985      11.00000000
  1 4986      11.00000000
  1 4987      11.00000000
  1 4988      11.00000000
  1 4989      11.00000000
  1 4990      11.00000000
  1 4991      11.00000000
  1 4992      11.00000000
  1 4993      11.00000000
  1 4994      11.00000000
  1 4995      11.00000000
  1 4996      11.00000000
  1 4997      11.00000000
  1 4998      11.00000000
  1 4999      11.00000000
  1 5000      11.00000000
  1 5001      11.00000000
  1 5002      11.00000000
  1 5003      11.00000000
  1 5004      11.00000000
  1 5005      11.00000000
  1 5006      11.00000000
  1 5007      11.00000000
  1 5008      11.00000000
  1 5009      11.00000000
  1 5010      11.00000000
  1 5011      11.00000000
  1 5012      11.00000000
  1 5013      11.00000000
  1 5014      11.00000000
  1 5015      11.00000000
  1 5016      11.00000000
  1 5017      11.00000000
  1 5018      11.00000000
  1 5019      11.00000000
  1 5020      11.00000000
  1 5021      11.00000000
  1 5022      11.00000000
  1 5023      11.00000000
  1 5024      11.00000000
  1 5025      11.00000000
  1 5026      11.00000000
  1 5027      11.00000000
  1 5028      11.00000000
  1 5029      11.00000000
  1 5030      11.00000000
  1 5031      11.00000000
  1 5032      11.00000000
  1 5033      11.00000000
  1 5034      11.00000000
  1 5035      11.00000000
  1 5036      11.00000000
  1 5037      11.00000000
  1 5038      11.00000000
  1 5039      11.00000000
  1 5040      11.00000000
  1 5041      11.00000000
  1 5042      11.00000000
  1 5043      11.00000000
  1 5044      11.00000000
  1 5045      11.00000000
  1 5046      11.00000000
  1 5047      11.00000000
  1 5048      11.00000000
  1 5049      11.00000000
  1 5050      11.00000000
  1 5051      11.00000000
  1 5052      11.00000000
  1 5053      11.00000000
  1 5054      11.00000000
  1 5055      11.00000000
  1 5056      11.00000000
  1 5057      11.00000000
  1 5058      11.00000000
  1 5059      11.00000000
  1 5060      11.00000000
  1 5061      11.00000000
  1 5062      11.00000000
  1 5063      11.00000000
  1 5064      11.00000000
  1 5065      11.00000000
  1 5066      11.00000000
  1 5067      11.00000000
  1 5068      11.00000000
  1 5069      11.00000000
  1 5070      11.00000000
  1 5071      11.00000000
  1 5072      11.00000000
  1 5073      11.00000000
  1 5074      11.00000000
  1 5075      11.00000000
  1 5076      11.00000000
  1 5077      11.00000000
  1 5078      11.00000000
  1 5079      11.00000000
  1 5080      11.00000000
  1 5081      11.00000000
  1 5082      11.00000000
  1 5083      11.00000000
  1 5084      11.00000000
  1 5085      11.00000000
  1 5086      11.00000000
  1 5087      11.00000000
  1 5088      11.00000000
  1 5089      11.00000000
  1 5090      11.00000000
  1 5091      11.00000000
  1 5092      11.00000000
  1 5093      11.00000000
  1 5094      11.00000000
  1 5095      11.00000000
  1 5096      11.00000000
  1 5097      11.00000000
  1 5098      11.00000000
  1 5099      11.00000000
  1 5100      11.00000000
  1 5101      11.00000000
  1 5102      11.00000000
  1 5103      11.00000000
  1 5104      11.00000000
  1 5105      11.00000000
  1 5106      11.00000000
  1 5107      11.00000000
  1 6077      11.00000000
  1 6078      11.00000000
  1 6079      11.00000000
  1 6080      11.00000000
  1 6081      11.00000000
  1 6082      11.00000000
  1 6083      11.00000000
  1 6084      11.00000000
  1 6085      11.00000000
  1 6086      11.00000000
  1 6087      11.00000000
  1 6088      11.00000000
  1 6089      11.00000000
  1 6090      11.00000000
  1 6091      11.00000000
  1 6092      11.00000000
  1 6093      11.00000000
  1 6094      11.00000000
  1 6095      11.00000000
  1 6096      11.00000000
  1 6097      11.00000000
  1 6098      11.00000000
  1 6099      11.00000000
  1 6100      11.00000000
  1 6101      11.00000000
  1 6102      11.00000000
  1 6103      11.00000000
  1 6104      11.00000000
  1 6105      11.00000000
  1 6106      11.00000000
  1 6107      11.00000000
  1 6108      11.00000000
  1 6109      11.00000000
  1 6110      11.00000000
  1 6111      11.00000000
  1 6112      11.00000000
  1 6113      11.00000000
  1 6114      11.00000000
  1 6115      11.00000000
  1 6116      11.00000000
  1 6117      11.00000000
  1 6118      11.00000000
  1 6119      11.00000000
  1 6120      11.00000000
  1 6121      11.00000000
  1 6122      11.00000000
  1 6123      11.00000000
  1 6124      11.00000000
  1 6125      11.00000000
  1 6126      11.00000000
  1 6127      11.00000000
  1 6128      11.00000000
  1 6129      11.00000000
  1 6130      11.00000000
  1 6131      11.00000000
  1 6132      11.00000000
  1 6133      11.00000000
  1 6134      11.00000000
  1 6135      11.00000000
  1 6136      11.00000000
  1 6137      11.00000000
  1 6138      11.00000000
  1 6139      11.00000000
  1 6140      11.00000000
  1 6141      11.00000000
  1 6142      11.00000000
  1 6143      11.00000000
  1 6144      11.00000000
  1 6145      11.00000000
  1 6146      11.00000000
  1 6147      11.00000000
  1 6148      11.00000000
  1 6149      11.00000000
  1 6150      11.00000000
  1 6151      11.00000000
  1 6152      11.00000000
  1 6153      11.00000000
  1 6154      11.00000000
  1 6155      11.00000000
  1 6156      11.00000000
  1 6157      11.00000000
  1 6158      11.00000000
  1 6159      11.00000000
  1 6160      11.00000000
  1 6161      11.00000000
  1 6162      11.00000000
  1 6163      11.00000000
  1 6164      11.00000000
  1 6165      11.00000000
  1 6166      11.00000000
  1 6167      11.00000000
  1 6168      11.00000000
  1 6169      11.00000000
  1 6170      11.00000000
  1 6171      11.00000000
  1 6172      11.00000000
  1 6173      11.00000000
  1 6174      11.00000000
  1 6175      11.00000000
  1 6176      11.00000000
  1 6177      11.00000000
  1 6178      11.00000000
  1 6179      11.00000000
  1 6180      11.00000000
  1 6181      11.00000000
  1 6182      11.00000000
  1 6183      11.00000000
  1 6184      11.00000000
  1 6185      11.00000000
  1 6186      11.00000000
  1 6187      11.00000000
  1 6188      11.00000000
  1 6189      11.00000000
  1 6190      11.00000000
  1 6191      11.00000000
  1 6192      11.00000000
  1 6193      11.00000000
  1 6194      11.00000000
  1 6195      11.00000000
  1 6196      11.00000000
  1 6197      11.00000000
  1 6198      11.00000000
  1 6199      11.00000000
  1 6200      11.00000000
  1 6201      11.00000000
  1 6202      11.00000000
  1 6203      11.00000000
  1 6204      11.00000000
  1 6205      11.00000000
  1 6206      11.00000000
  1 6207      11.00000000
  1 6208      11.00000000
  1 6209      11.00000000
  1 6210      11.00000000
  1 6211      11.00000000
  1 6212      11.00000000
  1 6213      11.00000000
  1 6214      11.00000000
  1 6215      11.00000000
  1 6216      11.00000000
  1 6217      11.00000000
  1 6218      11.00000000
  1 6219      11.00000000
  1 6220      11.00000000
  1 6221      11.00000000
  1 6222      11.00000000
  1 6223      11.00000000
  1 6224      11.00000000
  1 6225      11.00000000
  1 6226      11.00000000
  1 6227      11.00000000
  1 6228      11.00000000
  1 6229      11.00000000
  1 6230      11.00000000
  1 6231      11.00000000
  1 6232      11.00000000
  1 6233      11.00000000
  1 6234      11.00000000
  1 6235      11.00000000
  1 6236      11.00000000
  1 6237      11.00000000
  1 6238      11.00000000
  1 6239      11.00000000
  1 6240      11.00000000
  1 6241      11.00000000
  1 6242      11.00000000
  1 6243      11.00000000
  1 6244      11.00000000
  1 6245      11.00000000
  1 6246      11.00000000
  1 6247      11.00000000
  1 6248      11.00000000
  1 6249      11.00000000
  1 6250      11.00000000
  1 6251      11.00000000
  1 6252      11.00000000
  1 6253      11.00000000
  1 6254      11.00000000
  1 6255      11.00000000
  1 6256      11.00000000
  1 6257      11.00000000
  1 6258      11.00000000
  1 6259      11.00000000
  1 6260      11.00000000
  1 6261      11.00000000
  1 6262      11.00000000
  1 6263      11.00000000
  1 6264      11.00000000
  1 6265      11.00000000
  1 6266      11.00000000
  1 6267      11.00000000
  1 6268      11.00000000
  1 6269      11.00000000
  1 6270      11.00000000
  1 6271      11.00000000
  1 6272      11.00000000
  1 6273      11.00000000
  1 6274      11.00000000
  1 6275      11.00000000
  1 6276      11.00000000
  1 6277      11.00000000
  1 6278      11.00000000
  1 6279      11.00000000
  1 6280      11.00000000
  1 6281      11.00000000
  1 6282      11.00000000
  1 6283      11.00000000
  1 6284      11.00000000
  1 6285      11.00000000
  1 6286      11.00000000
  1 6287      11.00000000
  1 6288      11.00000000
  1 6289      11.00000000
  1 6290      11.00000000
  1 6291      11.00000000
  1 6292      11.00000000
  1 6293      11.00000000
  1 6294      11.00000000
  1 6295      11.00000000
  1 6296      11.00000000
  1 6297      11.00000000
  1 6298      11.00000000
  1 6299      11.00000000
  1 6300      11.00000000
  1 6301      11.00000000
  1 6302      11.00000000
  1 6303      11.00000000
  1 6304      11.00000000
  1 6305      11.00000000
  1 6306      11.00000000
  1 6307      11.00000000
  1 6308      11.00000000
  1 6309      11.00000000
  1 6310      11.00000000
  1 6311      11.00000000
  1 6312      11.00000000
  1 6313      11.00000000
  1 6314      11.00000000
  1 6315      11.00000000
  1 6316      11.00000000
  1 6317      11.00000000
  1 6318      11.00000000
  1 6319      11.00000000
  1 6320      11.00000000
  1 6321      11.00000000
  1 6322      11.00000000
  1 6323      11.00000000
  1 6324      11.00000000
  1 6325      11.00000000
  1 6326      11.00000000
  1 6327      11.00000000
  1 6328      11.00000000
  1 6329      11.00000000
  1 6330      11.00000000
  1 6331      11.00000000
  1 6332      11.00000000
  1 6333      11.00000000
  1 6334      11.00000000
  1 6335      11.00000000
  1 6336      11.00000000
  1 6337      11.00000000
  1 6338      11.00000000
  1 6339      11.00000000
  1 6340      11.00000000
  1 6341      11.00000000
  1 6342      11.00000000
  1 6343      11.00000000
  1 6344      11.00000000
  1 6345      11.00000000
  1 6346      11.00000000
  1 6347      11.00000000
  1 6348      11.00000000
  1 6349      11.00000000
  1 6350      11.00000000
  1 6351      11.00000000
  1 6352      11.00000000
  1 6353      11.00000000
  1 6354      11.00000000
  1 6355      11.00000000
  1 6356      11.00000000
  1 6357      11.00000000
  1 6358      11.00000000
  1 6359      11.00000000
  1 6360      11.00000000
  1 6361      11.00000000
  1 6362      11.00000000
  1 6363      11.00000000
  1 6364      11.00000000
  1 6365      11.00000000
  1 6366      11.00000000
  1 6367      11.00000000
  1 6368      11.00000000
  1 6369      11.00000000
  1 6370      11.00000000
  1 6371      11.00000000
  1 6372      11.00000000
  1 6373      11.00000000
  1 6374      11.00000000
  1 6375      11.00000000
  1 6376      11.00000000
  1 6377      11.00000000
  1 6378      11.00000000
  1 6379      11.00000000
  1 6380      11.00000000
  1 6381      11.00000000
  1 6382      11.00000000
  1 6383      11.00000000
  1 6384      11.00000000
  1 6385      11.00000000
  1 6386      11.00000000
  1 6387      11.00000000
  1 6388      11.00000000
  1 6389      11.00000000
  1 6390      11.00000000
  1 6391      11.00000000
  1 6392      11.00000000
  1 6393      11.00000000
  1 6394      11.00000000
  1 6395      11.00000000
  1 6396      11.00000000
  1 6397      11.00000000
  1 6398      11.00000000
  1 6399      11.00000000
  1 6400      11.00000000
  1 6401      11.00000000
  1 6402      11.00000000
  1 6403      11.00000000
  1 6404      11.00000000
  1 6405      11.00000000
  1 6406      11.00000000
  1 6407      11.00000000
  1 6408      11.00000000
  1 6409      11.00000000
  1 6410      11.00000000
  1 6411      11.00000000
  1 6412      11.00000000
  1 6413      11.00000000
  1 6414      11.00000000
  1 6415      11.00000000
  1 6416      11.00000000
  1 6417      11.00000000
  1 6418      11.00000000
  1 6419      11.00000000
  1 6420      11.00000000
  1 6421      11.00000000
  1 6422      11.00000000
  1 6423      11.00000000
  1 6424      11.00000000
  1 6425      11.00000000
  1 6426      11.00000000
  1 6427      11.00000000
  1 6428      11.00000000
  1 6429      11.00000000
  1 6430      11.00000000
  1 6431      11.00000000
  1 6432      11.00000000
  1 6433      11.00000000
  1 6434      11.00000000
  1 6435      11.00000000
  1 6436      11.00000000
  1 6437      11.00000000
  1 6438      11.00000000
  1 6439      11.00000000
  1 6440      11.00000000
  1 6441      11.00000000
  1 6442      11.00000000
  1 6443      11.00000000
  1 6444      11.00000000
  1 6445      11.00000000
  1 6446      11.00000000
  1 6447      11.00000000
  1 6448      11.00000000
  1 6449      11.00000000
  1 6450      11.00000000
  1 6451      11.00000000
  1 6452      11.00000000
  1 6453      11.00000000
  1 6454      11.00000000
  1 6455      11.00000000
  1 6456      11.00000000
  1 6457      11.00000000
  1 6458      11.00000000
  1 6459      11.00000000
  1 6460      11.00000000
  1 6461      11.00000000
  1 6462      11.00000000
  1 6463      11.00000000
  1 6464      11.00000000
  1 6465      11.00000000
  1 6466      11.00000000
  1 6467      11.00000000
  1 6468      11.00000000
  1 6469      11.00000000
  1 6470      11.00000000
  1 6471      11.00000000
  1 6472      11.00000000
  1 6473      11.00000000
  1 6474      11.00000000
  1 6475      11.00000000
  1 6476      11.00000000
  1 6477      11.00000000
  1 6478      11.00000000
  1 6479      11.00000000
  1 6480      11.00000000
  1 6481      11.00000000
  1 6482      11.00000000
  1 6483      11.00000000
  1 6484      11.00000000
  1 6485      11.00000000
  1 6486      11.00000000
  1 6487      11.00000000
  1 6488      11.00000000
  1 6489      11.00000000
  1 6490      11.00000000
  1 6491      11.00000000
  1 6492      11.00000000
  1 6493      11.00000000
  1 6494      11.00000000
  1 6495      11.00000000
  1 6496      11.00000000
  1 6497      11.00000000
  1 6498      11.00000000
  1 6499      11.00000000
  1 6500      11.00000000
  1 6501      11.00000000
  1 6502      11.00000000
  1 6503      11.00000000
  1 6504      11.00000000
  1 6505      11.00000000
  1 6506      11.00000000
  1 6507      11.00000000
  1 6508      11.00000000
  1 6509      11.00000000
  1 6510      11.00000000
  1 6511      11.00000000
  1 6512      11.00000000
  1 6513      11.00000000
  1 6514      11.00000000
  1 6515      11.00000000
  1 6516      11.00000000
  1 6517      11.00000000
  1 6518      11.00000000
  1 6519      11.00000000
  1 6520      11.00000000
  1 6521      11.00000000
  1 6522      11.00000000
  1 6523      11.00000000
  1 6524      11.00000000
  1 6525      11.00000000
  1 6526      11.00000000
  1 6527      11.00000000
  1 6528      11.00000000
  1 6529      11.00000000
  1 6530      11.00000000
  1 6531      11.00000000
  1 6532      11.00000000
  1 6533      11.00000000
  1 6534      11.00000000