BEGIN options
END options

BEGIN dimensions
  NLAY  5
  NCPL  20400
  NVERT  10291
END dimensions

BEGIN griddata
  top
    INTERNAL  FACTOR  1.0
          29.18634200      29.98539600      10.43741900       5.42006220      45.00000000      11.71515900      11.66482600       5.34157680       5.27542320       5.52369230      13.70726200      13.62700900       5.31439010       5.41250540       5.39248700      10.00000000      10.00000000       5.59742310       5.43804820       5.57442820
         5.49752880       5.29041420       5.48892330       5.39198030       5.10660640       5.37100980       5.40012930       5.46694880       5.66615740       5.49397140       5.59560080       5.38118450       5.08753570       5.29772380       5.29936400       5.39494690       5.41453680       5.35651380       5.40056610       5.21781960
         5.10280250       5.23290420       5.25435020       5.33617880       5.48697310       5.23255040       5.31347970       5.27655840       5.04561140       5.25460480       5.20723510       5.15628770       5.05881900       5.26113450       5.27542310       5.37537940       5.56346280       5.29408340       5.33292130       5.31752680
         5.10503360       5.32202220       5.32766370       5.25863670       5.51238190       5.31948330       5.34238970       5.31519470       5.07390550       5.43791020       5.30919740       5.38363310       5.57817390       5.11244710       5.28057370       5.29987380       5.24679770       5.62119010       5.38277000       5.44445890
         5.58295520       5.16837120       5.33388370       5.31779140       5.13081740       5.49287900       5.33240300       5.37669700       5.30341280       5.08623580       5.25651550       5.31070560       5.32513950       5.59197640       5.38120460       5.39737500       5.27025760       5.10186530       5.25494240       5.31617620
         5.33531650       5.57846750       5.50732870       5.40699720       5.14129180       5.12553340       5.28186190       5.40297140       5.52645860       5.44131760       5.41709520       5.48384040       5.01881120       5.28838440       5.29896710       5.45017000       5.77147260       5.53143560       5.47860850       5.39261220
         5.05849250       5.18575220       5.34062470       5.39083920       5.51693640       5.28655150       5.39241890       5.34667560       5.02106500       5.33784070       5.30829360       5.41909480       5.58070350       5.24715790       5.36800380       5.32032380       5.02344760       5.27521840       5.29762520       5.37836300
         5.29246990       5.08627330       5.26015120       5.18129370       5.22428950       5.25291720       5.30016250       5.29589100       5.00607970       5.20277490       5.24968840       5.33677950       5.23789760       5.08317830       5.23477170       5.28018330       5.28141500       5.28002260       5.32627580       5.31524030
         5.00636770       5.26468400       5.26158160       5.38896320       5.57122500       5.31876620       5.36081070       5.31972440       5.02413390       5.33365270       5.29283090       5.33557200       5.09450170       5.14191110       5.30738250       5.44801530       5.39161970       5.13391300       5.27711560       5.28807470
         5.20470420       5.32809920       5.39938160       5.40005110       5.00496350       5.31698090       5.36087680       5.51109490       5.35357690       5.07941280       5.35412090       5.45754050       5.49222430       5.63539040       5.59953210       5.58172550       5.22665130       5.07739530       5.32009830       5.44606540
         5.48825860       5.25772010       5.40684970       5.40270110       5.09930340       5.61597820       5.36801330       5.66607980       5.94431800       5.45731800       5.60757620       5.47786740       5.00059110       5.37657980       5.37336760       5.58573550       5.68970480       5.38293580       5.53607650       5.42291690
         5.00620520       5.29770580       5.33721480       5.33563120       5.20239760       5.05280030       5.19655070       5.28992720       5.39300040       5.26408090       5.30927550       5.27567080       5.02867850       5.33402410       5.34587810       5.43573680       5.15035190       5.07136680       5.25937770       5.33450170
         5.52166470       5.41032520       5.50775190       5.43241770       5.00105900       5.37616760       5.26856930       5.53961050       5.61863140       5.17088370       5.39412960       5.38686410       5.24435210       5.59458480       5.47603750       5.50282410       5.17589970       5.10160070       5.27544300       5.44273710
         5.53030100       5.18057800       5.37540780       5.36942570       5.21555530       5.56856280       5.44433640       5.47770610       5.19977450       5.08361960       5.19351280       5.42043850       5.41452540       5.12228870       5.33252980       5.24637260       5.27875700       5.23282880       5.31684770       5.29489390
         5.10343710       5.03427060       5.15374850       5.35109780       5.48424090       5.46848310       5.44912870       5.29532640       5.00689740       5.30279570       5.32551340       5.51273560       5.47334790       5.09058770       5.25002420       5.26926940       5.32294260       5.41821030       5.43282790       5.28667140
         5.03701700       5.15951830       5.23129410       5.32997590       5.02401660       5.20179220       5.25687740       5.32551480       5.41978750       5.03211480       5.27632370       5.36501280       5.41938270       5.39338120       5.41737150       5.27407880       5.02714470       5.40709280       5.33829710       5.46976910
         5.29177020       5.03851880       5.25352990       5.46718480       5.71219500       5.75220790       5.63770720       5.52156640       5.14095840       5.12540570       5.24838490       5.45175210       5.53340300       5.11143320       5.32500640       5.33534740       5.29538290       5.47841360       5.42541820       5.39903100
         5.03025880       5.25260880       5.28485860       5.49010600       5.40475810       5.01821160       5.28253080       5.40089340       5.53815630       5.72899490       5.44212380       5.38036680       5.23602900       5.02370650       5.20818590       5.24288540       5.20449920       5.03167630       5.19692230       5.39965090
         5.55927540       5.50231040       5.52560340       5.33412270       5.05257340       5.20285360       5.25210970       5.44815370       5.33501010       5.00853920       5.23889350       5.39276420       5.61125770       5.71829530       5.63040810       5.58951990       5.32887260       5.01110360       5.23501530       5.40037290
         5.57202880       5.25475380       5.41610670       5.34745950       5.13538160       5.54795800       5.40361640       5.51049330       5.38081460       5.00604280       5.23009480       5.41471860       5.57335380       5.59905510       5.58315580       5.37829300       5.11233620       5.12738540       5.21800290       5.46964960
         5.57965320       5.24028440       5.38844300       5.24190310       5.15709430       5.42824430       5.37967360       5.42860850       5.15033420       5.12887300       5.16485330       5.37092170       5.65121700       5.31026990       5.45107290       5.35630160       5.18292570       5.64445090       5.53714950       5.57892300
         5.50441870       5.00474680       5.24364790       5.43250870       5.68738600       5.36083160       5.55214660       5.37177870       5.18656950       5.66672850       5.53443090       5.79392490       5.84291620       5.16684180       5.39224330       5.34117350       5.32200630       5.67595290       5.58522920       5.52634360
         5.28184310       5.05241360       5.19896750       5.47664090       5.83353420       5.64734370       5.70202560       5.42999720       5.08848370       5.26384730       5.25157130       5.49961850       5.59814230       5.05079980       5.27231770       5.32783160       5.41334050       5.63272020       5.51198840       5.44323630
         5.15691510       5.14553270       5.19207090       5.49916230       5.79609770       5.37245280       5.47411160       5.38400390       5.14387760       5.57005090       5.38277160       5.61966530       5.75979020       5.10792160       5.38389900       5.32200260       5.43189020       5.94659690       5.63081820       5.84243250
         6.21183380       5.55468600       5.62374450       5.43770480       5.11868860       5.42924670       5.35232860       5.45154110       5.28389680       5.06546610       5.15727760       5.51614260       5.80531330       5.60742770       5.56546630       5.38324700       5.11758400       5.30717380       5.26096970       5.47101810
         5.51848840       5.00748750       5.20484980       5.34287340       5.62727430       5.62004110       5.61459690       5.39572380       5.13558010       5.28707420       5.21316070       5.51624790       5.77200440       5.24295600       5.44318580       5.26875160       5.25565620       5.52702780       5.40789190       5.48416400
         5.37534510       5.01939930       5.13481400       5.35533160       5.59739580       5.40592250       5.46125190       5.29953770       5.12193720       5.37210140       5.24090410       5.35648650       5.42086620       5.00980510       5.16221280       5.30020830       5.53515600       5.65527400       5.56070870       5.40075670
         5.34520530       5.02870530       5.11842080       5.35617930       5.60527320       5.37567990       5.44042600       5.27403460       5.14205640       5.36418810       5.20824680       5.47605140       5.55393270       5.08122410       5.23309250       5.20839220       5.28490430       5.01759870       5.13594100       5.26542900
         5.49108770       5.46186810       5.44927900       5.31957680       5.16848410       5.35446330       5.20896800       5.36988040       5.58393120       5.03828830       5.18206620       5.24624230       5.46888980       5.32381910       5.33584000       5.21688350       5.20280010       5.47618590       5.28881660       5.43722930
         5.43360550       5.03559750       5.10212260       5.32786140       5.75643060       5.63344250       5.57664110       5.39542420       5.25304470       5.21396190       5.11786520       5.51523810       5.76060280       5.27714630       5.38696600       5.20689880       5.35713910       5.61361190       5.45599060       5.50130950
         5.40893870       5.13506090       5.08438150       5.40651110       5.86974530       5.44473080       5.52984000       5.28150270       5.35243280       5.66694950       5.41072310       5.75208190       5.97559190       5.26921680       5.41103550       5.20268340       5.44114650       5.66333330       5.48811890       5.49940670
         5.43516500       5.08322450       5.07335300       5.16811250       5.24026980       5.41846360       5.24304780       5.46744090       5.53858400       5.05798390       5.09920610       5.21136330       5.43860760       5.07141000       5.10173360       5.24451110       5.60862540       5.21955390       5.29527400       5.20593540
         5.56190740       5.54526100       5.45288570       5.31805260       5.34443070       5.47052030       5.22637610       5.54095240       5.73926820       5.11235950       5.10368990       5.33394700       5.86721650       5.69090410       5.63144040       5.33975720       5.40017000       5.44376130       5.19289080       5.53973800
         5.72853950       5.12659150       5.16383600       5.17819670       5.56176740       5.38082660       5.32475860       5.15077050       5.32799440       5.30198380       5.20075290       5.14082760       5.36517370       5.57520610       5.33008220       5.48495840       5.71488580       5.14421050       5.13311490       5.17763010
         5.67856970       5.46843190       5.43518710       5.16595490       5.50105670       5.72238280       5.37268150       5.76739200       6.14684050       5.53014770       5.51691090       5.17621830       5.57339460       5.71059130       5.39521600       5.41668170       5.59093880       5.36378710       5.05812730       5.49757300
         6.16524970       5.55658670       5.55115590       5.22724990       5.65262790       5.68991530       5.23785850       5.65509800       6.55574460       6.06957700       5.96946260       6.32785890       6.09764000       6.00409310       5.65064140       5.26948790      24.86007000      24.13590600      20.76207500      10.00000000
        10.00000000      24.81363500      24.84768400      20.39006200      11.68293900      11.66864300       5.64745800       5.43678400      13.82609700      13.73973400      13.59438100      12.88216000      13.66894900      11.77648500      11.72669200      11.71895100      10.00000000      10.00000000      10.00000000       5.80027130
         5.32240250       5.02260980       5.25479440       5.35300200       5.59204400       5.78451920       5.53066590       6.35661590      21.56860900      21.41181800      19.80700800      19.50980700      16.06844300      20.93570000      20.37039600      21.00357500      20.20667000      10.00000000      10.00000000      10.00000000
        10.00000000      10.00000000      10.00000000      10.00000000      10.00000000      10.00000000      10.00000000      23.24476000      20.68152000      21.19744500      21.14970200      12.85284000      11.60655900      11.83625000      11.80575500      11.62969700      11.80088900      11.25608400      11.47936700      11.01196900
        11.14455000      10.98147100      10.98558000      10.86930600      10.94537000      10.69695600      10.79219000      11.68417100      11.71597400       5.67898550       5.68075080       5.87211990       5.76117220       6.08041290       6.42415370       5.27572370       5.33977600      15.31553200      18.56040300      18.80646200
        20.34693900      24.27696400      13.97009300      13.86509700      10.54423300      10.62860300      11.72121300      11.76047400      21.72903400      20.74008900      24.43485400      22.77436800      19.84235200      19.59407600      16.15866400      15.21980800      15.77180500      16.01977400      15.88741400      15.94631600
        12.69412100      11.79065700      10.31186700      10.00000000      10.00000000      10.00000000      10.00000000      10.00000000      11.61390700      11.61783000      11.62657800      11.63205500      11.64293800      11.59152500      11.66470800      11.62431200      11.72222100      11.70119100      11.72649200      11.76125200
        11.76860300      11.83849400      11.76212300      11.75265900      11.75207400      11.74693900      11.74928100      11.80534100      11.74611300      12.86626800      10.00000000      10.00000000      10.00000000      10.00000000      10.00000000      10.00000000      10.00000000      10.00000000      10.00000000      10.00000000
        10.00000000      15.62151300      15.93681100      15.00000000      15.54364100      12.94648000      14.59088200      10.35053300      10.88461700      10.00000000      10.31119200      10.00000000      10.00000000      10.00000000      10.00000000      10.00000000      10.00000000      10.00000000      10.00000000      10.00000000
        10.00000000      10.00000000      10.00000000      10.00000000      10.00000000      10.00000000      10.00000000      10.00000000      10.00000000      10.00000000      10.00000000      10.00000000      10.00000000      10.00000000      10.00000000      10.00000000      10.00000000      10.00000000      10.00000000      10.00000000
        10.00000000      10.00000000      10.00000000      10.00000000      10.00000000      10.00000000      10.00000000      10.00000000      10.00000000      10.20533600      10.00000000      10.00000000      10.00000000      10.00000000      10.00000000      10.00000000      10.00000000      14.33314500      14.01994100      14.47526700
        14.38601300      15.11041100      14.68130400      15.40683000      15.42226300      15.20412800      15.37127600      15.39393500      15.30866200      15.26168900      15.13294400      15.11261400      15.13749000      15.03955500      15.03263800      15.47656800      15.18504300      16.90783000      15.97719200      19.00338900
        17.90948200      20.27125500      20.43702900      20.25994400      20.31508200      20.16801300      20.37475400      24.86869000      21.42756700      30.34887300      28.72925100      39.47568800      36.19280100      44.44703400      42.52921300      49.76343400      49.09963600      50.55384900      51.14152900      51.66312400
        52.17976300      51.24805000      51.64867800      50.23062700      50.58180700      50.00000000      50.00000000      50.00000000      50.00000000      49.94743500      49.94544100      49.52542700      49.64775200      48.48076500      48.76787200      47.40329000      47.82530800      46.79628900      46.89531900      46.15325300
        46.19513100      45.65275100      45.66514000      45.00000000      45.29387500      45.23660900      45.00000000      45.19687000      45.00000000      44.63543200      44.51971400      44.66578400      44.62102300      44.58167400      44.66296300      44.69604300      44.86021600      44.78242400      44.90896300      44.99521400
        44.24796600      44.57484300      42.72548900      43.35918700      40.25429700      41.36197500      38.94972000      39.38519700      39.08688800      39.01772800      39.44003500      39.76450000      11.85931600      11.87474600      12.93605700      13.34487500      13.46301600      13.72390000      14.05445500      14.29117100
        14.78097400      14.92556200      14.98041500      15.16584400      15.08666900      15.13435200      15.28289300      16.01554600      17.02032300      18.66474300      19.38207300      20.13759100      20.00000000      20.28219700      20.33417400      20.01893600      21.00864300      25.65117600      33.34130500      39.97418300
        49.14762600      45.33022200      48.34865900      48.81110400      48.04182500      45.48006300      44.62509900      41.21135600      39.47279100      37.05477400      23.40395500      23.24342000      23.29153000      24.81124900      23.55913000      23.25475100      23.03727300      23.71555000      23.52277900      23.73672200
        22.53553100      23.09353500      23.19474400      22.68283900      22.92021100      24.18255500      16.23452800      16.52073600      16.20412600      19.81134900      20.63313900      15.68646900      16.41412200      15.00000000      15.34686800      11.13340400      13.18931900      11.90635100      11.70867300      11.56177700
        11.32874600      11.21278000      10.97004300      10.96628400      10.97161700      10.99394200      10.90520800      10.81903000      10.69745600      10.61857100      10.53203500      10.48948900      10.49843500      10.44848200      10.23622200      10.29466600       9.91866650       9.80074210       8.92008290       8.56398690
         8.61873880       8.67929830       8.54626200       8.69460390       9.03786940       9.06182750       9.28263480       7.51463950      10.49865100      10.50040000      34.91577500      33.95347300      31.42087800      30.79004800      29.48715300      29.17417800      26.99748100      25.48206000      24.46447700      23.88616500
        23.56971100      23.00010400      22.92616200      23.38010500      24.06122900      23.25477700      22.99639200      23.29241800      24.06753400      22.83657600      21.87540600      21.60526500      21.79976800      10.42104100      11.00753800      10.34010100      10.29208200      10.42001000      10.21140800      10.31624900
        10.19775800      35.76337000      37.12164200      33.43488300      34.89089000      30.15515800      30.80746800      28.60392000      28.99550000      24.95309500      25.65874800      24.44547200      24.45451700      23.55650300      23.79570400      24.31504800      23.70002400      22.97951900      23.23047600      20.93872900
        20.59402300      20.09150200      20.00432500      20.38164200      20.09302700      21.15181500      20.00140100      22.93693300      20.41690100      21.06774500      20.17705300      21.47432600      10.41771800      10.47038300      10.25408100      10.35822100      15.69787500      15.97592700      16.10447000      15.93063700
        13.56884600      12.03173700      10.82224500      10.26222500      10.00000000      10.00000000      10.00000000      10.00000000      10.00000000      10.00000000      10.00000000      10.00000000      10.00000000      10.00000000      10.00000000      10.00000000      11.28307400      10.29649300      10.13191400      10.19375400
         6.51306730       5.42732940       5.35645160       5.22094780       5.40620790       5.36177100       5.21255450       5.00000000       5.00000000       5.00000000      19.81664700      19.75089800      16.54724400      19.80693200      19.92688600      19.97928300      19.88214700      20.09278600      19.96693200       5.23051640
         5.14382810       5.03016620       5.70627370       5.85561690       8.92010680      10.20309300      13.62099500      10.00000000      10.00000000      10.00000000      10.00000000      10.00000000      10.00000000      10.00000000      10.00000000      10.00000000      10.00000000      10.00000000      10.00000000      10.00000000
        10.00000000      10.00000000      10.00000000      10.00000000      10.00000000      10.00000000      10.00000000      10.00000000      10.00000000      10.00000000      10.00000000      10.00000000      10.00000000      10.00000000      10.00000000      10.00000000      10.00000000      10.00000000      10.00000000      10.00000000
        10.00000000      10.00000000      10.00000000      10.00000000      10.00000000      10.00000000      10.00000000      10.00000000      10.00000000      10.00000000      10.00000000      10.00000000      10.00000000      10.00000000      10.00000000      10.00000000      10.00000000      10.00000000      10.00000000      10.00000000
        10.00000000      10.00000000      10.00000000      10.00000000      10.00000000      10.00000000      10.00000000      10.00000000      10.00000000      10.00000000      10.00000000      10.00000000      10.00000000      10.00000000      10.00000000      10.00000000      10.00000000      10.00000000      10.00000000      10.00000000
        10.00000000      10.00000000      10.00000000      10.00000000      10.00000000      10.00000000      10.00000000      10.00000000      10.00000000      10.00000000      10.00000000      10.00000000      10.00000000      10.00000000      10.00000000      10.00000000      10.00000000      10.00000000      10.00000000      10.00000000
        10.00000000      10.00000000      10.00000000      10.00000000      10.00000000      10.00000000      10.00000000      10.00000000      10.00000000      10.00000000      10.00000000      10.00000000      10.00000000      10.00000000      10.00000000      10.00000000      10.00000000      10.00000000      10.00000000      10.00000000
        10.00000000      10.00000000      10.00000000      10.00000000      10.00000000      10.00000000      10.00000000      10.00000000      10.00000000      10.00000000      10.00000000      10.00000000      10.00000000      10.00000000      10.00000000      10.00000000      10.00000000      10.00000000      10.00000000      10.00000000
        10.00000000      10.00000000      10.00000000      10.00000000      10.00000000      10.00000000      10.00000000      10.00000000      10.00000000      10.00000000      10.00000000      10.00000000      10.00000000      10.00000000      10.00000000      10.00000000      10.00000000      10.00000000      10.00000000      10.00000000
        10.00000000      10.00000000      10.00000000      10.00000000      10.00000000      10.00000000      10.00000000      10.00000000      10.00000000      10.00000000      10.00000000      10.00000000      10.00000000      10.00000000      10.00000000      10.00000000      10.00000000      10.00000000      10.00000000      10.00000000
        10.00000000      20.84547000      19.88404600      21.35477500      20.46030100      10.46901800      10.99303000      12.58473700      10.57550000      10.95531100      10.29540400      10.97076200      10.25980800      10.98763300      10.97311100      10.90298000      10.53414500      11.42791500      16.91349200      16.78085400
        16.98966100      15.99684400      16.86032200      13.26063300      15.82953800      11.69852000      12.75395100      11.08179400      10.78141600      11.18589900      18.18383600      20.31539700      16.31642700      15.33502900      20.53204500      20.61936800      16.38679300      18.76684600      20.62110600      20.59583700
         8.99165350       9.33820230      13.67651400      14.75882100      12.79370100      12.50448900      13.73773700      12.31741200      13.47957000      12.27124500      12.99844900      15.00850300      16.26140900      14.79443200      14.53937000      14.99885700      14.54200600      14.92551400      18.94338800      19.57332400
        15.82566000      18.81399500      15.02151300      15.92924100      21.60913800      24.36098300      25.08365200      27.99997700      30.38684600      33.79543200      35.20605700      38.04887300      19.07800300      21.07619900      18.05861300      40.80629100      43.75628300      46.81578900      52.34826100      54.78455600
        56.20401400      58.15270700      59.01442500      59.25500300      58.21083500      56.77936800      53.89694400      47.75371800      44.71073300      39.15103000      35.26655000      30.02069600      25.03302300      20.44445000      17.15006800      15.05175200      14.41271500      12.87829600      10.25979300      10.10065700
         7.79168310       8.30329930       5.96866470       7.33678410       6.20039980       6.91396410       6.25430290       7.22792530       5.76470080       5.57832470       5.41862600       6.60201000       5.97635630       6.08406140       5.28293080       6.91347100       6.46061940       6.71512250       5.24461770       6.55683390
         6.13825600       6.44663570       5.32078300       6.27902260       5.87478990       6.12888920       5.30861100       6.11116660       5.46191620       6.67352470       6.14465120       6.28807050       5.62882650       6.78270340       6.16719530       6.28377730       5.54077740       6.76510920       5.83944470       6.20758920
         5.98182050       7.07764590       5.97082820       6.25053000       5.68853230       6.87735200       5.74753020       6.28320150       6.00365640       6.86252680       5.68586290       6.28477820       6.22333750       6.92773260       5.48664000       6.74041810       6.44972540       6.82085850       5.49402550       7.01012070
         6.61899490       7.02302400       5.50841670       6.87099730       6.41729350       6.55898740       5.55075460       7.07565050       6.28757470       6.40986990       5.51225930       6.66531210       5.85518690       6.32709460       5.84181230       6.41430870       5.45041160       6.43767570       5.76952300       6.36928640
         5.94993080       6.53419900       5.53743330       6.71782870       6.28792550       6.56395640       5.62036830       6.59938380       5.62378180       6.58720380       5.89023510       6.33232180       5.82694420       6.67005110       5.61639650       6.77644230       5.96728680       6.67187540       6.26724950       6.94743300
         5.76051810       6.40108010       5.94746860       6.51114360       5.79883850       6.93174730       6.46376090       6.69671380       5.67009010       6.94983540       6.30134430       6.50883590       5.66001800       6.40090080       5.65505880       6.33997560       5.90393980       6.25608250       5.56303200       6.34512380
         5.60328720       6.44021550       6.03075110       6.50665840       5.66476050       6.78596170       6.11670380       6.55241080       5.97660930       6.77533120       5.79532300       6.67395610       6.05022270       6.51117250       5.86493830       6.73562870       5.74017990       6.51475540       5.99283440       6.42208440
         5.79575310       6.36735080       5.56819760       6.33371680       6.08295710       6.54634740       5.73979370       6.67140620       5.97740080       6.48622560       5.92502580       6.54302510       5.62248770       6.28738610       5.69724910       6.50385760       5.86741210       6.58700280       5.97719020       6.51158960
         5.85472950       6.82736100       5.90131150       6.88903790       6.47977320       7.08439690       5.94153970       6.81717690       6.07916350       6.57799210       6.04947650       6.80239990       5.83272350       6.79403060       6.01464580       6.83507330       6.24585210       6.86176330       5.88166550       6.30311820
         5.69928930       6.65108490       6.19877420       6.74967620       5.82835320       6.75291500       5.95831570       6.70020050       6.31213110       7.17325700       6.05517860       6.82908390       6.18554630       6.88464550       5.98927810       6.81207930       6.02502800       6.98586630       6.33620830       6.95000890
         5.95058370       6.86278010       6.14377460       6.53262300       5.93949810       6.95222090       5.95944240       6.94301770       6.32798190       7.12991580       6.28481270       7.30145270       6.35875450       7.30695630       6.46716930       7.28162740       6.32929210       7.35227960       6.57782690       7.18401790
         6.34738890       7.13435700       6.23609120       7.20296590       6.54164440       7.26642610       6.15831940       6.96322220       6.21197460       7.06539070       6.38490490       7.00144700       6.06196490       7.21266580       6.53084050       6.96878400       6.22736480       7.38048960       6.54206520       7.19637930