BEGIN GRIDDATA
  STRT
    CONSTANT 11.
END GRIDDATA

