BEGIN OPTIONS
END OPTIONS

BEGIN DIMENSIONS
  NEXG 540
END DIMENSIONS

BEGIN EXCHANGEDATA
  1 29 2 1 1 1 1 250.0 83.33333587646484 166.6666717529297
  1 28 3 1 1 1 1 250.0 83.33333587646484 166.6666717529297
  1 28 3 1 1 2 1 250.0 83.33333587646484 166.6666717529297
  1 28 3 1 1 3 1 250.0 83.33333587646484 166.6666717529297
  1 28 4 1 1 4 1 250.0 83.33333587646484 166.6666717529297
  1 28 4 1 1 5 1 250.0 83.33333587646484 166.6666717529297
  1 28 4 1 1 6 1 250.0 83.33333587646484 166.6666717529297
  1 28 5 1 1 7 1 250.0 83.33333587646484 166.6666717529297
  1 28 5 1 1 8 1 250.0 83.33333587646484 166.6666717529297
  1 28 5 1 1 9 1 250.0 83.33333587646484 166.6666717529297
  1 28 6 1 1 10 1 250.0 83.33333587646484 166.6666717529297
  1 28 6 1 1 11 1 250.0 83.33333587646484 166.6666717529297
  1 28 6 1 1 12 1 250.0 83.33333587646484 166.6666717529297
  1 28 7 1 1 13 1 250.0 83.33333587646484 166.6666717529297
  1 28 7 1 1 14 1 250.0 83.33333587646484 166.6666717529297
  1 28 7 1 1 15 1 250.0 83.33333587646484 166.6666717529297
  1 28 8 1 1 16 1 250.0 83.33333587646484 166.6666717529297
  1 28 8 1 1 17 1 250.0 83.33333587646484 166.6666717529297
  1 28 8 1 1 18 1 250.0 83.33333587646484 166.6666717529297
  1 28 9 1 1 19 1 250.0 83.33333587646484 166.6666717529297
  1 28 9 1 1 20 1 250.0 83.33333587646484 166.6666717529297
  1 28 9 1 1 21 1 250.0 83.33333587646484 166.6666717529297
  1 28 10 1 1 22 1 250.0 83.33333587646484 166.6666717529297
  1 28 10 1 1 23 1 250.0 83.33333587646484 166.6666717529297
  1 28 10 1 1 24 1 250.0 83.33333587646484 166.6666717529297
  1 28 11 1 1 25 1 250.0 83.33333587646484 166.6666717529297
  1 28 11 1 1 26 1 250.0 83.33333587646484 166.6666717529297
  1 29 12 1 1 27 1 250.0 83.33333587646484 166.6666717529297
  1 28 11 1 1 27 1 250.0 83.33333587646484 166.6666717529297
  1 29 2 1 2 1 1 250.0 83.33333587646484 166.6666717529297
  1 29 12 1 2 27 1 250.0 83.33333587646484 166.6666717529297
  1 29 2 1 3 1 1 250.0 83.33333587646484 166.6666717529297
  1 29 12 1 3 27 1 250.0 83.33333587646484 166.6666717529297
  1 30 2 1 4 1 1 250.0 83.33333587646484 166.6666717529297
  1 30 12 1 4 27 1 250.0 83.33333587646484 166.6666717529297
  1 30 2 1 5 1 1 250.0 83.33333587646484 166.6666717529297
  1 30 12 1 5 27 1 250.0 83.33333587646484 166.6666717529297
  1 30 2 1 6 1 1 250.0 83.33333587646484 166.6666717529297
  1 30 12 1 6 27 1 250.0 83.33333587646484 166.6666717529297
  1 31 2 1 7 1 1 250.0 83.33333587646484 166.6666717529297
  1 31 12 1 7 27 1 250.0 83.33333587646484 166.6666717529297
  1 31 2 1 8 1 1 250.0 83.33333587646484 166.6666717529297
  1 31 12 1 8 27 1 250.0 83.33333587646484 166.6666717529297
  1 31 2 1 9 1 1 250.0 83.33333587646484 166.6666717529297
  1 31 12 1 9 27 1 250.0 83.33333587646484 166.6666717529297
  1 32 2 1 10 1 1 250.0 83.33333587646484 166.6666717529297
  1 32 12 1 10 27 1 250.0 83.33333587646484 166.6666717529297
  1 32 2 1 11 1 1 250.0 83.33333587646484 166.6666717529297
  1 32 12 1 11 27 1 250.0 83.33333587646484 166.6666717529297
  1 32 2 1 12 1 1 250.0 83.33333587646484 166.6666717529297
  1 32 12 1 12 27 1 250.0 83.33333587646484 166.6666717529297
  1 33 2 1 13 1 1 250.0 83.33333587646484 166.6666717529297
  1 33 12 1 13 27 1 250.0 83.33333587646484 166.6666717529297
  1 33 2 1 14 1 1 250.0 83.33333587646484 166.6666717529297
  1 33 12 1 14 27 1 250.0 83.33333587646484 166.6666717529297
  1 33 2 1 15 1 1 250.0 83.33333587646484 166.6666717529297
  1 33 12 1 15 27 1 250.0 83.33333587646484 166.6666717529297
  1 34 2 1 16 1 1 250.0 83.33333587646484 166.6666717529297
  1 34 12 1 16 27 1 250.0 83.33333587646484 166.6666717529297
  1 34 2 1 17 1 1 250.0 83.33333587646484 166.6666717529297
  1 34 12 1 17 27 1 250.0 83.33333587646484 166.6666717529297
  1 34 2 1 18 1 1 250.0 83.33333587646484 166.6666717529297
  1 34 12 1 18 27 1 250.0 83.33333587646484 166.6666717529297
  1 35 2 1 19 1 1 250.0 83.33333587646484 166.6666717529297
  1 35 12 1 19 27 1 250.0 83.33333587646484 166.6666717529297
  1 35 2 1 20 1 1 250.0 83.33333587646484 166.6666717529297
  1 35 12 1 20 27 1 250.0 83.33333587646484 166.6666717529297
  1 35 2 1 21 1 1 250.0 83.33333587646484 166.6666717529297
  1 35 12 1 21 27 1 250.0 83.33333587646484 166.6666717529297
  1 36 2 1 22 1 1 250.0 83.33333587646484 166.6666717529297
  1 36 12 1 22 27 1 250.0 83.33333587646484 166.6666717529297
  1 36 2 1 23 1 1 250.0 83.33333587646484 166.6666717529297
  1 36 12 1 23 27 1 250.0 83.33333587646484 166.6666717529297
  1 36 2 1 24 1 1 250.0 83.33333587646484 166.6666717529297
  1 36 12 1 24 27 1 250.0 83.33333587646484 166.6666717529297
  1 37 2 1 25 1 1 250.0 83.33333587646484 166.6666717529297
  1 37 12 1 25 27 1 250.0 83.33333587646484 166.6666717529297
  1 37 2 1 26 1 1 250.0 83.33333587646484 166.6666717529297
  1 37 12 1 26 27 1 250.0 83.33333587646484 166.6666717529297
  1 37 2 1 27 1 1 250.0 83.33333587646484 166.6666717529297
  1 38 3 1 27 1 1 250.0 83.33333587646484 166.6666717529297
  1 38 3 1 27 2 1 250.0 83.33333587646484 166.6666717529297
  1 38 3 1 27 3 1 250.0 83.33333587646484 166.6666717529297
  1 38 4 1 27 4 1 250.0 83.33333587646484 166.6666717529297
  1 38 4 1 27 5 1 250.0 83.33333587646484 166.6666717529297
  1 38 4 1 27 6 1 250.0 83.33333587646484 166.6666717529297
  1 38 5 1 27 7 1 250.0 83.33333587646484 166.6666717529297
  1 38 5 1 27 8 1 250.0 83.33333587646484 166.6666717529297
  1 38 5 1 27 9 1 250.0 83.33333587646484 166.6666717529297
  1 38 6 1 27 10 1 250.0 83.33333587646484 166.6666717529297
  1 38 6 1 27 11 1 250.0 83.33333587646484 166.6666717529297
  1 38 6 1 27 12 1 250.0 83.33333587646484 166.6666717529297
  1 38 7 1 27 13 1 250.0 83.33333587646484 166.6666717529297
  1 38 7 1 27 14 1 250.0 83.33333587646484 166.6666717529297
  1 38 7 1 27 15 1 250.0 83.33333587646484 166.6666717529297
  1 38 8 1 27 16 1 250.0 83.33333587646484 166.6666717529297
  1 38 8 1 27 17 1 250.0 83.33333587646484 166.6666717529297
  1 38 8 1 27 18 1 250.0 83.33333587646484 166.6666717529297
  1 38 9 1 27 19 1 250.0 83.33333587646484 166.6666717529297
  1 38 9 1 27 20 1 250.0 83.33333587646484 166.6666717529297
  1 38 9 1 27 21 1 250.0 83.33333587646484 166.6666717529297
  1 38 10 1 27 22 1 250.0 83.33333587646484 166.6666717529297
  1 38 10 1 27 23 1 250.0 83.33333587646484 166.6666717529297
  1 38 10 1 27 24 1 250.0 83.33333587646484 166.6666717529297
  1 38 11 1 27 25 1 250.0 83.33333587646484 166.6666717529297
  1 38 11 1 27 26 1 250.0 83.33333587646484 166.6666717529297
  1 37 12 1 27 27 1 250.0 83.33333587646484 166.6666717529297
  1 38 11 1 27 27 1 250.0 83.33333587646484 166.6666717529297
  2 29 2 2 1 1 1 250.0 83.33333587646484 166.6666717529297
  2 28 3 2 1 1 1 250.0 83.33333587646484 166.6666717529297
  2 28 3 2 1 2 1 250.0 83.33333587646484 166.6666717529297
  2 28 3 2 1 3 1 250.0 83.33333587646484 166.6666717529297
  2 28 4 2 1 4 1 250.0 83.33333587646484 166.6666717529297
  2 28 4 2 1 5 1 250.0 83.33333587646484 166.6666717529297
  2 28 4 2 1 6 1 250.0 83.33333587646484 166.6666717529297
  2 28 5 2 1 7 1 250.0 83.33333587646484 166.6666717529297
  2 28 5 2 1 8 1 250.0 83.33333587646484 166.6666717529297
  2 28 5 2 1 9 1 250.0 83.33333587646484 166.6666717529297
  2 28 6 2 1 10 1 250.0 83.33333587646484 166.6666717529297
  2 28 6 2 1 11 1 250.0 83.33333587646484 166.6666717529297
  2 28 6 2 1 12 1 250.0 83.33333587646484 166.6666717529297
  2 28 7 2 1 13 1 250.0 83.33333587646484 166.6666717529297
  2 28 7 2 1 14 1 250.0 83.33333587646484 166.6666717529297
  2 28 7 2 1 15 1 250.0 83.33333587646484 166.6666717529297
  2 28 8 2 1 16 1 250.0 83.33333587646484 166.6666717529297
  2 28 8 2 1 17 1 250.0 83.33333587646484 166.6666717529297
  2 28 8 2 1 18 1 250.0 83.33333587646484 166.6666717529297
  2 28 9 2 1 19 1 250.0 83.33333587646484 166.6666717529297
  2 28 9 2 1 20 1 250.0 83.33333587646484 166.6666717529297
  2 28 9 2 1 21 1 250.0 83.33333587646484 166.6666717529297
  2 28 10 2 1 22 1 250.0 83.33333587646484 166.6666717529297
  2 28 10 2 1 23 1 250.0 83.33333587646484 166.6666717529297
  2 28 10 2 1 24 1 250.0 83.33333587646484 166.6666717529297
  2 28 11 2 1 25 1 250.0 83.33333587646484 166.6666717529297
  2 28 11 2 1 26 1 250.0 83.33333587646484 166.6666717529297
  2 29 12 2 1 27 1 250.0 83.33333587646484 166.6666717529297
  2 28 11 2 1 27 1 250.0 83.33333587646484 166.6666717529297
  2 29 2 2 2 1 1 250.0 83.33333587646484 166.6666717529297
  2 29 12 2 2 27 1 250.0 83.33333587646484 166.6666717529297
  2 29 2 2 3 1 1 250.0 83.33333587646484 166.6666717529297
  2 29 12 2 3 27 1 250.0 83.33333587646484 166.6666717529297
  2 30 2 2 4 1 1 250.0 83.33333587646484 166.6666717529297
  2 30 12 2 4 27 1 250.0 83.33333587646484 166.6666717529297
  2 30 2 2 5 1 1 250.0 83.33333587646484 166.6666717529297
  2 30 12 2 5 27 1 250.0 83.33333587646484 166.6666717529297
  2 30 2 2 6 1 1 250.0 83.33333587646484 166.6666717529297
  2 30 12 2 6 27 1 250.0 83.33333587646484 166.6666717529297
  2 31 2 2 7 1 1 250.0 83.33333587646484 166.6666717529297
  2 31 12 2 7 27 1 250.0 83.33333587646484 166.6666717529297
  2 31 2 2 8 1 1 250.0 83.33333587646484 166.6666717529297
  2 31 12 2 8 27 1 250.0 83.33333587646484 166.6666717529297
  2 31 2 2 9 1 1 250.0 83.33333587646484 166.6666717529297
  2 31 12 2 9 27 1 250.0 83.33333587646484 166.6666717529297
  2 32 2 2 10 1 1 250.0 83.33333587646484 166.6666717529297
  2 32 12 2 10 27 1 250.0 83.33333587646484 166.6666717529297
  2 32 2 2 11 1 1 250.0 83.33333587646484 166.6666717529297
  2 32 12 2 11 27 1 250.0 83.33333587646484 166.6666717529297
  2 32 2 2 12 1 1 250.0 83.33333587646484 166.6666717529297
  2 32 12 2 12 27 1 250.0 83.33333587646484 166.6666717529297
  2 33 2 2 13 1 1 250.0 83.33333587646484 166.6666717529297
  2 33 12 2 13 27 1 250.0 83.33333587646484 166.6666717529297
  2 33 2 2 14 1 1 250.0 83.33333587646484 166.6666717529297
  2 33 12 2 14 27 1 250.0 83.33333587646484 166.6666717529297
  2 33 2 2 15 1 1 250.0 83.33333587646484 166.6666717529297
  2 33 12 2 15 27 1 250.0 83.33333587646484 166.6666717529297
  2 34 2 2 16 1 1 250.0 83.33333587646484 166.6666717529297
  2 34 12 2 16 27 1 250.0 83.33333587646484 166.6666717529297
  2 34 2 2 17 1 1 250.0 83.33333587646484 166.6666717529297
  2 34 12 2 17 27 1 250.0 83.33333587646484 166.6666717529297
  2 34 2 2 18 1 1 250.0 83.33333587646484 166.6666717529297
  2 34 12 2 18 27 1 250.0 83.33333587646484 166.6666717529297
  2 35 2 2 19 1 1 250.0 83.33333587646484 166.6666717529297
  2 35 12 2 19 27 1 250.0 83.33333587646484 166.6666717529297
  2 35 2 2 20 1 1 250.0 83.33333587646484 166.6666717529297
  2 35 12 2 20 27 1 250.0 83.33333587646484 166.6666717529297
  2 35 2 2 21 1 1 250.0 83.33333587646484 166.6666717529297
  2 35 12 2 21 27 1 250.0 83.33333587646484 166.6666717529297
  2 36 2 2 22 1 1 250.0 83.33333587646484 166.6666717529297
  2 36 12 2 22 27 1 250.0 83.33333587646484 166.6666717529297
  2 36 2 2 23 1 1 250.0 83.33333587646484 166.6666717529297
  2 36 12 2 23 27 1 250.0 83.33333587646484 166.6666717529297
  2 36 2 2 24 1 1 250.0 83.33333587646484 166.6666717529297
  2 36 12 2 24 27 1 250.0 83.33333587646484 166.6666717529297
  2 37 2 2 25 1 1 250.0 83.33333587646484 166.6666717529297
  2 37 12 2 25 27 1 250.0 83.33333587646484 166.6666717529297
  2 37 2 2 26 1 1 250.0 83.33333587646484 166.6666717529297
  2 37 12 2 26 27 1 250.0 83.33333587646484 166.6666717529297
  2 37 2 2 27 1 1 250.0 83.33333587646484 166.6666717529297
  2 38 3 2 27 1 1 250.0 83.33333587646484 166.6666717529297
  2 38 3 2 27 2 1 250.0 83.33333587646484 166.6666717529297
  2 38 3 2 27 3 1 250.0 83.33333587646484 166.6666717529297
  2 38 4 2 27 4 1 250.0 83.33333587646484 166.6666717529297
  2 38 4 2 27 5 1 250.0 83.33333587646484 166.6666717529297
  2 38 4 2 27 6 1 250.0 83.33333587646484 166.6666717529297
  2 38 5 2 27 7 1 250.0 83.33333587646484 166.6666717529297
  2 38 5 2 27 8 1 250.0 83.33333587646484 166.6666717529297
  2 38 5 2 27 9 1 250.0 83.33333587646484 166.6666717529297
  2 38 6 2 27 10 1 250.0 83.33333587646484 166.6666717529297
  2 38 6 2 27 11 1 250.0 83.33333587646484 166.6666717529297
  2 38 6 2 27 12 1 250.0 83.33333587646484 166.6666717529297
  2 38 7 2 27 13 1 250.0 83.33333587646484 166.6666717529297
  2 38 7 2 27 14 1 250.0 83.33333587646484 166.6666717529297
  2 38 7 2 27 15 1 250.0 83.33333587646484 166.6666717529297
  2 38 8 2 27 16 1 250.0 83.33333587646484 166.6666717529297
  2 38 8 2 27 17 1 250.0 83.33333587646484 166.6666717529297
  2 38 8 2 27 18 1 250.0 83.33333587646484 166.6666717529297
  2 38 9 2 27 19 1 250.0 83.33333587646484 166.6666717529297
  2 38 9 2 27 20 1 250.0 83.33333587646484 166.6666717529297
  2 38 9 2 27 21 1 250.0 83.33333587646484 166.6666717529297
  2 38 10 2 27 22 1 250.0 83.33333587646484 166.6666717529297
  2 38 10 2 27 23 1 250.0 83.33333587646484 166.6666717529297
  2 38 10 2 27 24 1 250.0 83.33333587646484 166.6666717529297
  2 38 11 2 27 25 1 250.0 83.33333587646484 166.6666717529297
  2 38 11 2 27 26 1 250.0 83.33333587646484 166.6666717529297
  2 37 12 2 27 27 1 250.0 83.33333587646484 166.6666717529297
  2 38 11 2 27 27 1 250.0 83.33333587646484 166.6666717529297
  3 29 2 3 1 1 1 250.0 83.33333587646484 166.6666717529297
  3 28 3 3 1 1 1 250.0 83.33333587646484 166.6666717529297
  3 28 3 3 1 2 1 250.0 83.33333587646484 166.6666717529297
  3 28 3 3 1 3 1 250.0 83.33333587646484 166.6666717529297
  3 28 4 3 1 4 1 250.0 83.33333587646484 166.6666717529297
  3 28 4 3 1 5 1 250.0 83.33333587646484 166.6666717529297
  3 28 4 3 1 6 1 250.0 83.33333587646484 166.6666717529297
  3 28 5 3 1 7 1 250.0 83.33333587646484 166.6666717529297
  3 28 5 3 1 8 1 250.0 83.33333587646484 166.6666717529297
  3 28 5 3 1 9 1 250.0 83.33333587646484 166.6666717529297
  3 28 6 3 1 10 1 250.0 83.33333587646484 166.6666717529297
  3 28 6 3 1 11 1 250.0 83.33333587646484 166.6666717529297
  3 28 6 3 1 12 1 250.0 83.33333587646484 166.6666717529297
  3 28 7 3 1 13 1 250.0 83.33333587646484 166.6666717529297
  3 28 7 3 1 14 1 250.0 83.33333587646484 166.6666717529297
  3 28 7 3 1 15 1 250.0 83.33333587646484 166.6666717529297
  3 28 8 3 1 16 1 250.0 83.33333587646484 166.6666717529297
  3 28 8 3 1 17 1 250.0 83.33333587646484 166.6666717529297
  3 28 8 3 1 18 1 250.0 83.33333587646484 166.6666717529297
  3 28 9 3 1 19 1 250.0 83.33333587646484 166.6666717529297
  3 28 9 3 1 20 1 250.0 83.33333587646484 166.6666717529297
  3 28 9 3 1 21 1 250.0 83.33333587646484 166.6666717529297
  3 28 10 3 1 22 1 250.0 83.33333587646484 166.6666717529297
  3 28 10 3 1 23 1 250.0 83.33333587646484 166.6666717529297
  3 28 10 3 1 24 1 250.0 83.33333587646484 166.6666717529297
  3 28 11 3 1 25 1 250.0 83.33333587646484 166.6666717529297
  3 28 11 3 1 26 1 250.0 83.33333587646484 166.6666717529297
  3 29 12 3 1 27 1 250.0 83.33333587646484 166.6666717529297
  3 28 11 3 1 27 1 250.0 83.33333587646484 166.6666717529297
  3 29 2 3 2 1 1 250.0 83.33333587646484 166.6666717529297
  3 29 12 3 2 27 1 250.0 83.33333587646484 166.6666717529297
  3 29 2 3 3 1 1 250.0 83.33333587646484 166.6666717529297
  3 29 12 3 3 27 1 250.0 83.33333587646484 166.6666717529297
  3 30 2 3 4 1 1 250.0 83.33333587646484 166.6666717529297
  3 30 12 3 4 27 1 250.0 83.33333587646484 166.6666717529297
  3 30 2 3 5 1 1 250.0 83.33333587646484 166.6666717529297
  3 30 12 3 5 27 1 250.0 83.33333587646484 166.6666717529297
  3 30 2 3 6 1 1 250.0 83.33333587646484 166.6666717529297
  3 30 12 3 6 27 1 250.0 83.33333587646484 166.6666717529297
  3 31 2 3 7 1 1 250.0 83.33333587646484 166.6666717529297
  3 31 12 3 7 27 1 250.0 83.33333587646484 166.6666717529297
  3 31 2 3 8 1 1 250.0 83.33333587646484 166.6666717529297
  3 31 12 3 8 27 1 250.0 83.33333587646484 166.6666717529297
  3 31 2 3 9 1 1 250.0 83.33333587646484 166.6666717529297
  3 31 12 3 9 27 1 250.0 83.33333587646484 166.6666717529297
  3 32 2 3 10 1 1 250.0 83.33333587646484 166.6666717529297
  3 32 12 3 10 27 1 250.0 83.33333587646484 166.6666717529297
  3 32 2 3 11 1 1 250.0 83.33333587646484 166.6666717529297
  3 32 12 3 11 27 1 250.0 83.33333587646484 166.6666717529297
  3 32 2 3 12 1 1 250.0 83.33333587646484 166.6666717529297
  3 32 12 3 12 27 1 250.0 83.33333587646484 166.6666717529297
  3 33 2 3 13 1 1 250.0 83.33333587646484 166.6666717529297
  3 33 12 3 13 27 1 250.0 83.33333587646484 166.6666717529297
  3 33 2 3 14 1 1 250.0 83.33333587646484 166.6666717529297
  3 33 12 3 14 27 1 250.0 83.33333587646484 166.6666717529297
  3 33 2 3 15 1 1 250.0 83.33333587646484 166.6666717529297
  3 33 12 3 15 27 1 250.0 83.33333587646484 166.6666717529297
  3 34 2 3 16 1 1 250.0 83.33333587646484 166.6666717529297
  3 34 12 3 16 27 1 250.0 83.33333587646484 166.6666717529297
  3 34 2 3 17 1 1 250.0 83.33333587646484 166.6666717529297
  3 34 12 3 17 27 1 250.0 83.33333587646484 166.6666717529297
  3 34 2 3 18 1 1 250.0 83.33333587646484 166.6666717529297
  3 34 12 3 18 27 1 250.0 83.33333587646484 166.6666717529297
  3 35 2 3 19 1 1 250.0 83.33333587646484 166.6666717529297
  3 35 12 3 19 27 1 250.0 83.33333587646484 166.6666717529297
  3 35 2 3 20 1 1 250.0 83.33333587646484 166.6666717529297
  3 35 12 3 20 27 1 250.0 83.33333587646484 166.6666717529297
  3 35 2 3 21 1 1 250.0 83.33333587646484 166.6666717529297
  3 35 12 3 21 27 1 250.0 83.33333587646484 166.6666717529297
  3 36 2 3 22 1 1 250.0 83.33333587646484 166.6666717529297
  3 36 12 3 22 27 1 250.0 83.33333587646484 166.6666717529297
  3 36 2 3 23 1 1 250.0 83.33333587646484 166.6666717529297
  3 36 12 3 23 27 1 250.0 83.33333587646484 166.6666717529297
  3 36 2 3 24 1 1 250.0 83.33333587646484 166.6666717529297
  3 36 12 3 24 27 1 250.0 83.33333587646484 166.6666717529297
  3 37 2 3 25 1 1 250.0 83.33333587646484 166.6666717529297
  3 37 12 3 25 27 1 250.0 83.33333587646484 166.6666717529297
  3 37 2 3 26 1 1 250.0 83.33333587646484 166.6666717529297
  3 37 12 3 26 27 1 250.0 83.33333587646484 166.6666717529297
  3 37 2 3 27 1 1 250.0 83.33333587646484 166.6666717529297
  3 38 3 3 27 1 1 250.0 83.33333587646484 166.6666717529297
  3 38 3 3 27 2 1 250.0 83.33333587646484 166.6666717529297
  3 38 3 3 27 3 1 250.0 83.33333587646484 166.6666717529297
  3 38 4 3 27 4 1 250.0 83.33333587646484 166.6666717529297
  3 38 4 3 27 5 1 250.0 83.33333587646484 166.6666717529297
  3 38 4 3 27 6 1 250.0 83.33333587646484 166.6666717529297
  3 38 5 3 27 7 1 250.0 83.33333587646484 166.6666717529297
  3 38 5 3 27 8 1 250.0 83.33333587646484 166.6666717529297
  3 38 5 3 27 9 1 250.0 83.33333587646484 166.6666717529297
  3 38 6 3 27 10 1 250.0 83.33333587646484 166.6666717529297
  3 38 6 3 27 11 1 250.0 83.33333587646484 166.6666717529297
  3 38 6 3 27 12 1 250.0 83.33333587646484 166.6666717529297
  3 38 7 3 27 13 1 250.0 83.33333587646484 166.6666717529297
  3 38 7 3 27 14 1 250.0 83.33333587646484 166.6666717529297
  3 38 7 3 27 15 1 250.0 83.33333587646484 166.6666717529297
  3 38 8 3 27 16 1 250.0 83.33333587646484 166.6666717529297
  3 38 8 3 27 17 1 250.0 83.33333587646484 166.6666717529297
  3 38 8 3 27 18 1 250.0 83.33333587646484 166.6666717529297
  3 38 9 3 27 19 1 250.0 83.33333587646484 166.6666717529297
  3 38 9 3 27 20 1 250.0 83.33333587646484 166.6666717529297
  3 38 9 3 27 21 1 250.0 83.33333587646484 166.6666717529297
  3 38 10 3 27 22 1 250.0 83.33333587646484 166.6666717529297
  3 38 10 3 27 23 1 250.0 83.33333587646484 166.6666717529297
  3 38 10 3 27 24 1 250.0 83.33333587646484 166.6666717529297
  3 38 11 3 27 25 1 250.0 83.33333587646484 166.6666717529297
  3 38 11 3 27 26 1 250.0 83.33333587646484 166.6666717529297
  3 37 12 3 27 27 1 250.0 83.33333587646484 166.6666717529297
  3 38 11 3 27 27 1 250.0 83.33333587646484 166.6666717529297
  4 29 2 4 1 1 1 250.0 83.33333587646484 166.6666717529297
  4 28 3 4 1 1 1 250.0 83.33333587646484 166.6666717529297
  4 28 3 4 1 2 1 250.0 83.33333587646484 166.6666717529297
  4 28 3 4 1 3 1 250.0 83.33333587646484 166.6666717529297
  4 28 4 4 1 4 1 250.0 83.33333587646484 166.6666717529297
  4 28 4 4 1 5 1 250.0 83.33333587646484 166.6666717529297
  4 28 4 4 1 6 1 250.0 83.33333587646484 166.6666717529297
  4 28 5 4 1 7 1 250.0 83.33333587646484 166.6666717529297
  4 28 5 4 1 8 1 250.0 83.33333587646484 166.6666717529297
  4 28 5 4 1 9 1 250.0 83.33333587646484 166.6666717529297
  4 28 6 4 1 10 1 250.0 83.33333587646484 166.6666717529297
  4 28 6 4 1 11 1 250.0 83.33333587646484 166.6666717529297
  4 28 6 4 1 12 1 250.0 83.33333587646484 166.6666717529297
  4 28 7 4 1 13 1 250.0 83.33333587646484 166.6666717529297
  4 28 7 4 1 14 1 250.0 83.33333587646484 166.6666717529297
  4 28 7 4 1 15 1 250.0 83.33333587646484 166.6666717529297
  4 28 8 4 1 16 1 250.0 83.33333587646484 166.6666717529297
  4 28 8 4 1 17 1 250.0 83.33333587646484 166.6666717529297
  4 28 8 4 1 18 1 250.0 83.33333587646484 166.6666717529297
  4 28 9 4 1 19 1 250.0 83.33333587646484 166.6666717529297
  4 28 9 4 1 20 1 250.0 83.33333587646484 166.6666717529297
  4 28 9 4 1 21 1 250.0 83.33333587646484 166.6666717529297
  4 28 10 4 1 22 1 250.0 83.33333587646484 166.6666717529297
  4 28 10 4 1 23 1 250.0 83.33333587646484 166.6666717529297
  4 28 10 4 1 24 1 250.0 83.33333587646484 166.6666717529297
  4 28 11 4 1 25 1 250.0 83.33333587646484 166.6666717529297
  4 28 11 4 1 26 1 250.0 83.33333587646484 166.6666717529297
  4 29 12 4 1 27 1 250.0 83.33333587646484 166.6666717529297
  4 28 11 4 1 27 1 250.0 83.33333587646484 166.6666717529297
  4 29 2 4 2 1 1 250.0 83.33333587646484 166.6666717529297
  4 29 12 4 2 27 1 250.0 83.33333587646484 166.6666717529297
  4 29 2 4 3 1 1 250.0 83.33333587646484 166.6666717529297
  4 29 12 4 3 27 1 250.0 83.33333587646484 166.6666717529297
  4 30 2 4 4 1 1 250.0 83.33333587646484 166.6666717529297
  4 30 12 4 4 27 1 250.0 83.33333587646484 166.6666717529297
  4 30 2 4 5 1 1 250.0 83.33333587646484 166.6666717529297
  4 30 12 4 5 27 1 250.0 83.33333587646484 166.6666717529297
  4 30 2 4 6 1 1 250.0 83.33333587646484 166.6666717529297
  4 30 12 4 6 27 1 250.0 83.33333587646484 166.6666717529297
  4 31 2 4 7 1 1 250.0 83.33333587646484 166.6666717529297
  4 31 12 4 7 27 1 250.0 83.33333587646484 166.6666717529297
  4 31 2 4 8 1 1 250.0 83.33333587646484 166.6666717529297
  4 31 12 4 8 27 1 250.0 83.33333587646484 166.6666717529297
  4 31 2 4 9 1 1 250.0 83.33333587646484 166.6666717529297
  4 31 12 4 9 27 1 250.0 83.33333587646484 166.6666717529297
  4 32 2 4 10 1 1 250.0 83.33333587646484 166.6666717529297
  4 32 12 4 10 27 1 250.0 83.33333587646484 166.6666717529297
  4 32 2 4 11 1 1 250.0 83.33333587646484 166.6666717529297
  4 32 12 4 11 27 1 250.0 83.33333587646484 166.6666717529297
  4 32 2 4 12 1 1 250.0 83.33333587646484 166.6666717529297
  4 32 12 4 12 27 1 250.0 83.33333587646484 166.6666717529297
  4 33 2 4 13 1 1 250.0 83.33333587646484 166.6666717529297
  4 33 12 4 13 27 1 250.0 83.33333587646484 166.6666717529297
  4 33 2 4 14 1 1 250.0 83.33333587646484 166.6666717529297
  4 33 12 4 14 27 1 250.0 83.33333587646484 166.6666717529297
  4 33 2 4 15 1 1 250.0 83.33333587646484 166.6666717529297
  4 33 12 4 15 27 1 250.0 83.33333587646484 166.6666717529297
  4 34 2 4 16 1 1 250.0 83.33333587646484 166.6666717529297
  4 34 12 4 16 27 1 250.0 83.33333587646484 166.6666717529297
  4 34 2 4 17 1 1 250.0 83.33333587646484 166.6666717529297
  4 34 12 4 17 27 1 250.0 83.33333587646484 166.6666717529297
  4 34 2 4 18 1 1 250.0 83.33333587646484 166.6666717529297
  4 34 12 4 18 27 1 250.0 83.33333587646484 166.6666717529297
  4 35 2 4 19 1 1 250.0 83.33333587646484 166.6666717529297
  4 35 12 4 19 27 1 250.0 83.33333587646484 166.6666717529297
  4 35 2 4 20 1 1 250.0 83.33333587646484 166.6666717529297
  4 35 12 4 20 27 1 250.0 83.33333587646484 166.6666717529297
  4 35 2 4 21 1 1 250.0 83.33333587646484 166.6666717529297
  4 35 12 4 21 27 1 250.0 83.33333587646484 166.6666717529297
  4 36 2 4 22 1 1 250.0 83.33333587646484 166.6666717529297
  4 36 12 4 22 27 1 250.0 83.33333587646484 166.6666717529297
  4 36 2 4 23 1 1 250.0 83.33333587646484 166.6666717529297
  4 36 12 4 23 27 1 250.0 83.33333587646484 166.6666717529297
  4 36 2 4 24 1 1 250.0 83.33333587646484 166.6666717529297
  4 36 12 4 24 27 1 250.0 83.33333587646484 166.6666717529297
  4 37 2 4 25 1 1 250.0 83.33333587646484 166.6666717529297
  4 37 12 4 25 27 1 250.0 83.33333587646484 166.6666717529297
  4 37 2 4 26 1 1 250.0 83.33333587646484 166.6666717529297
  4 37 12 4 26 27 1 250.0 83.33333587646484 166.6666717529297
  4 37 2 4 27 1 1 250.0 83.33333587646484 166.6666717529297
  4 38 3 4 27 1 1 250.0 83.33333587646484 166.6666717529297
  4 38 3 4 27 2 1 250.0 83.33333587646484 166.6666717529297
  4 38 3 4 27 3 1 250.0 83.33333587646484 166.6666717529297
  4 38 4 4 27 4 1 250.0 83.33333587646484 166.6666717529297
  4 38 4 4 27 5 1 250.0 83.33333587646484 166.6666717529297
  4 38 4 4 27 6 1 250.0 83.33333587646484 166.6666717529297
  4 38 5 4 27 7 1 250.0 83.33333587646484 166.6666717529297
  4 38 5 4 27 8 1 250.0 83.33333587646484 166.6666717529297
  4 38 5 4 27 9 1 250.0 83.33333587646484 166.6666717529297
  4 38 6 4 27 10 1 250.0 83.33333587646484 166.6666717529297
  4 38 6 4 27 11 1 250.0 83.33333587646484 166.6666717529297
  4 38 6 4 27 12 1 250.0 83.33333587646484 166.6666717529297
  4 38 7 4 27 13 1 250.0 83.33333587646484 166.6666717529297
  4 38 7 4 27 14 1 250.0 83.33333587646484 166.6666717529297
  4 38 7 4 27 15 1 250.0 83.33333587646484 166.6666717529297
  4 38 8 4 27 16 1 250.0 83.33333587646484 166.6666717529297
  4 38 8 4 27 17 1 250.0 83.33333587646484 166.6666717529297
  4 38 8 4 27 18 1 250.0 83.33333587646484 166.6666717529297
  4 38 9 4 27 19 1 250.0 83.33333587646484 166.6666717529297
  4 38 9 4 27 20 1 250.0 83.33333587646484 166.6666717529297
  4 38 9 4 27 21 1 250.0 83.33333587646484 166.6666717529297
  4 38 10 4 27 22 1 250.0 83.33333587646484 166.6666717529297
  4 38 10 4 27 23 1 250.0 83.33333587646484 166.6666717529297
  4 38 10 4 27 24 1 250.0 83.33333587646484 166.6666717529297
  4 38 11 4 27 25 1 250.0 83.33333587646484 166.6666717529297
  4 38 11 4 27 26 1 250.0 83.33333587646484 166.6666717529297
  4 37 12 4 27 27 1 250.0 83.33333587646484 166.6666717529297
  4 38 11 4 27 27 1 250.0 83.33333587646484 166.6666717529297
  5 29 2 5 1 1 1 250.0 83.33333587646484 166.6666717529297
  5 28 3 5 1 1 1 250.0 83.33333587646484 166.6666717529297
  5 28 3 5 1 2 1 250.0 83.33333587646484 166.6666717529297
  5 28 3 5 1 3 1 250.0 83.33333587646484 166.6666717529297
  5 28 4 5 1 4 1 250.0 83.33333587646484 166.6666717529297
  5 28 4 5 1 5 1 250.0 83.33333587646484 166.6666717529297
  5 28 4 5 1 6 1 250.0 83.33333587646484 166.6666717529297
  5 28 5 5 1 7 1 250.0 83.33333587646484 166.6666717529297
  5 28 5 5 1 8 1 250.0 83.33333587646484 166.6666717529297
  5 28 5 5 1 9 1 250.0 83.33333587646484 166.6666717529297
  5 28 6 5 1 10 1 250.0 83.33333587646484 166.6666717529297
  5 28 6 5 1 11 1 250.0 83.33333587646484 166.6666717529297
  5 28 6 5 1 12 1 250.0 83.33333587646484 166.6666717529297
  5 28 7 5 1 13 1 250.0 83.33333587646484 166.6666717529297
  5 28 7 5 1 14 1 250.0 83.33333587646484 166.6666717529297
  5 28 7 5 1 15 1 250.0 83.33333587646484 166.6666717529297
  5 28 8 5 1 16 1 250.0 83.33333587646484 166.6666717529297
  5 28 8 5 1 17 1 250.0 83.33333587646484 166.6666717529297
  5 28 8 5 1 18 1 250.0 83.33333587646484 166.6666717529297
  5 28 9 5 1 19 1 250.0 83.33333587646484 166.6666717529297
  5 28 9 5 1 20 1 250.0 83.33333587646484 166.6666717529297
  5 28 9 5 1 21 1 250.0 83.33333587646484 166.6666717529297
  5 28 10 5 1 22 1 250.0 83.33333587646484 166.6666717529297
  5 28 10 5 1 23 1 250.0 83.33333587646484 166.6666717529297
  5 28 10 5 1 24 1 250.0 83.33333587646484 166.6666717529297
  5 28 11 5 1 25 1 250.0 83.33333587646484 166.6666717529297
  5 28 11 5 1 26 1 250.0 83.33333587646484 166.6666717529297
  5 29 12 5 1 27 1 250.0 83.33333587646484 166.6666717529297
  5 28 11 5 1 27 1 250.0 83.33333587646484 166.6666717529297
  5 29 2 5 2 1 1 250.0 83.33333587646484 166.6666717529297
  5 29 12 5 2 27 1 250.0 83.33333587646484 166.6666717529297
  5 29 2 5 3 1 1 250.0 83.33333587646484 166.6666717529297
  5 29 12 5 3 27 1 250.0 83.33333587646484 166.6666717529297
  5 30 2 5 4 1 1 250.0 83.33333587646484 166.6666717529297
  5 30 12 5 4 27 1 250.0 83.33333587646484 166.6666717529297
  5 30 2 5 5 1 1 250.0 83.33333587646484 166.6666717529297
  5 30 12 5 5 27 1 250.0 83.33333587646484 166.6666717529297
  5 30 2 5 6 1 1 250.0 83.33333587646484 166.6666717529297
  5 30 12 5 6 27 1 250.0 83.33333587646484 166.6666717529297
  5 31 2 5 7 1 1 250.0 83.33333587646484 166.6666717529297
  5 31 12 5 7 27 1 250.0 83.33333587646484 166.6666717529297
  5 31 2 5 8 1 1 250.0 83.33333587646484 166.6666717529297
  5 31 12 5 8 27 1 250.0 83.33333587646484 166.6666717529297
  5 31 2 5 9 1 1 250.0 83.33333587646484 166.6666717529297
  5 31 12 5 9 27 1 250.0 83.33333587646484 166.6666717529297
  5 32 2 5 10 1 1 250.0 83.33333587646484 166.6666717529297
  5 32 12 5 10 27 1 250.0 83.33333587646484 166.6666717529297
  5 32 2 5 11 1 1 250.0 83.33333587646484 166.6666717529297
  5 32 12 5 11 27 1 250.0 83.33333587646484 166.6666717529297
  5 32 2 5 12 1 1 250.0 83.33333587646484 166.6666717529297
  5 32 12 5 12 27 1 250.0 83.33333587646484 166.6666717529297
  5 33 2 5 13 1 1 250.0 83.33333587646484 166.6666717529297
  5 33 12 5 13 27 1 250.0 83.33333587646484 166.6666717529297
  5 33 2 5 14 1 1 250.0 83.33333587646484 166.6666717529297
  5 33 12 5 14 27 1 250.0 83.33333587646484 166.6666717529297
  5 33 2 5 15 1 1 250.0 83.33333587646484 166.6666717529297
  5 33 12 5 15 27 1 250.0 83.33333587646484 166.6666717529297
  5 34 2 5 16 1 1 250.0 83.33333587646484 166.6666717529297
  5 34 12 5 16 27 1 250.0 83.33333587646484 166.6666717529297
  5 34 2 5 17 1 1 250.0 83.33333587646484 166.6666717529297
  5 34 12 5 17 27 1 250.0 83.33333587646484 166.6666717529297
  5 34 2 5 18 1 1 250.0 83.33333587646484 166.6666717529297