BEGIN OPTIONS
  LENGTH_UNITS FEET
  XORIGIN 0.0
  YORIGIN 0.0
  ANGROT 0.0
END OPTIONS

BEGIN DIMENSIONS
  NLAY 5
  NROW 40
  NCOL 25
END DIMENSIONS

BEGIN GRIDDATA
  DELR
    CONSTANT 500.
  DELC
    CONSTANT 500.
  TOP LAYERED
    CONSTANT 100.
  BOTM LAYERED
    CONSTANT -5.
    CONSTANT -50.
    CONSTANT -51.
    CONSTANT -100.
    OPEN/CLOSE  mv.dis.botm5.csv
  IDOMAIN LAYERED
    OPEN/CLOSE mv.dis.idomain1.dat
    OPEN/CLOSE mv.dis.idomain2.dat
    OPEN/CLOSE mv.dis.idomain3.dat
    OPEN/CLOSE mv.dis.idomain4.dat
    OPEN/CLOSE mv.dis.idomain5.dat
END GRIDDATA