BEGIN OPTIONS
  PRINT_INPUT
  PRINT_FLOWS
END OPTIONS

BEGIN DIMENSIONS
  MAXMVR 1
  MAXPACKAGES 2
END DIMENSIONS

BEGIN PACKAGES
  MAW-1
  LAK-1
END PACKAGES

BEGIN PERIOD 4
  MAW-1 4 LAK-1 1 FACTOR 0.9
END PERIOD 4
