BEGIN Options
  LIST       at.lst
  SAVE_FLOWS
END Options

BEGIN Packages
  DIS6       at.dis
  IC6        at.ic
  NPF6       at.npf
  OC6        at.oc
  LAK6       at.lak LAK-1
  RCH6       at.rch
  SFR6       at.sfr SFR-1
  MAW6       at.maw MAW-1
  MVR6       at.mvr
  OBS6       at.obs
END Packages
