BEGIN OPTIONS
  HEAD FILEOUT at.hds
  BUDGET FILEOUT at.cbc
  HEAD PRINT_FORMAT COLUMNS 25 WIDTH 7 DIGITS 2 FIXED
END OPTIONS

BEGIN PERIOD 1
  SAVE BUDGET all
  PRINT BUDGET LAST
  SAVE HEAD all
  PRINT HEAD LAST
END PERIOD
