BEGIN OPTIONS
  HEAD FILEOUT at.hds
  BUDGET FILEOUT at.cbc
  HEAD PRINT_FORMAT COLUMNS 25 WIDTH 7 DIGITS 2 FIXED
END OPTIONS

BEGIN PERIOD 1
  SAVE BUDGET LAST
  PRINT BUDGET LAST
  SAVE HEAD LAST
  PRINT HEAD LAST
END PERIOD

/Users/mnfienen/Documents/teaching_tmp/SD_MF6/pest_background_files/at.obs