begin options
  digits 20
  print_input
end options

begin Continuous FILEOUT riv.csv
  pf riv  pf
  ds riv ds
end Continuous
