begin options
  digits 10
  print_input
end options

begin Continuous FILEOUT chd.csv
  chdflow  chd  lake
end Continuous
