begin options
  digits 10
  print_input
end options

begin Continuous FILEOUT lak.csv
  L1STAGE  STAGE  1
  GWFFLOW  LAK    LAKE
end Continuous
