BEGIN OPTIONS
  HEAD FILEOUT ps1.hed
  HEAD PRINT_FORMAT COLUMNS 20 WIDTH 8 DIGITS 4 FIXED
END OPTIONS

BEGIN PERIOD 1
  SAVE HEAD ALL
  PRINT HEAD ALL
END PERIOD
