BEGIN OPTIONS
  TIME_UNITS days
END OPTIONS

BEGIN DIMENSIONS
  NPER 3
END DIMENSIONS

BEGIN PERIODDATA
     1.0   1 1.0
  6570.0 216 1.0
  4015.0 132 1.0
END PERIODDATA
