begin options
  PRINT_INPUT
  PRINT_FLOWS
  SAVE_FLOWS
end options

begin dimensions
  MAXBOUND 105
end dimensions

begin period 1
     2         4         4        11.  555000.  
     2         4         5        11.  555000.  
     2         4         6        11.  555000.  
     2         4         7        11.  555000.  
     2         5         3        11.  555000.  
     2         5         4        11.  555000.  
     2         5         5        11.  555000.  
     2         5         6        11.  555000.  
     2         5         7        11.  555000.  
     2         6         3        11.  555000.  
     2         6         4        11.  555000.  
     2         6         5        11.  555000.  
     2         6         6        11.  555000.  
     2         6         7        11.  555000.  
     2         7         3        11.  555000.  
     2         7         4        11.  555000.  
     2         7         5        11.  555000.  
     2         7         6        11.  555000.  
     2         7         7        11.  555000.  
     2         8         3        11.  555000.  
     2         8         4        11.  555000.  
     2         8         5        11.  555000.  
     2         8         6        11.  555000.  
     2         8         7        11.  555000.  
     2         9         3        11.  555000.  
     2         9         4        11.  555000.  
     2         9         5        11.  555000.  
     2         9         6        11.  555000.  
     2         9         7        11.  555000.  
     2        10         3        11.  555000.  
     2        10         4        11.  555000.  
     2        10         5        11.  555000.  
     2        10         6        11.  555000.  
     2        10         7        11.  555000.  
     2        10         8        11.  555000.  
     2        11         4        11.  555000.  
     2        11         5        11.  555000.  
     2        11         6        11.  555000.  
     2        11         7        11.  555000.  
     2        11         8        11.  555000.  
     2        12         4        11.  555000.  
     2        12         5        11.  555000.  
     2        12         6        11.  555000.  
     2        12         7        11.  555000.  
     2        12         8        11.  555000.  
     2        12         9        11.  555000.  
     2        13         5        11.  555000.  
     2        13         6        11.  555000.  
     2        13         7        11.  555000.  
     2        13         8        11.  555000.  
     2        13         9        11.  555000.  
     2        14         5        11.  555000.  
     2        14         6        11.  555000.  
     2        14         7        11.  555000.  
     2        14         8        11.  555000.  
     2        14         9        11.  555000.  
     2        15         5        11.  555000.  
     2        15         6        11.  555000.  
     2        15         7        11.  555000.  
     2        15         8        11.  555000.  
     2        15         9        11.  555000.  
     2        16         6        11.  555000.  
     2        16         7        11.  555000.  
     2        16         8        11.  555000.  
     2        16         9        11.  555000. 
     1         3         4        11.    6400.  
     1         3         5        11.    6400.  
     1         3         6        11.    6400.  
     1         3         7        11.    6400.  
     1         4         8        11.    6400.  
     1         5         8        11.    6400.  
     1         6         8        11.    6400.  
     1         7         8        11.    6400.  
     1         8         8        11.    6400.  
     1         9         8        11.    6400.  
     1         9         8        11.    6400.  
     1        10         9        11.    6400.  
     1        11         9        11.    6400.  
     1        11         9        11.    6400.  
     1        12        10        11.    6400.  
     1        13        10        11.    6400.  
     1        14        10        11.    6400.  
     1        15        10        11.    6400.  
     1        16        10        11.    6400.  
     1        17         9        11.    6400.  
     1        17         8        11.    6400.  
     1        17         7        11.    6400.  
     1        17         6        11.    6400.  
     1        16         5        11.    6400.  
     1        16         5        11.    6400.  
     1        15         4        11.    6400.  
     1        14         4        11.    6400.  
     1        13         4        11.    6400.  
     1        13         4        11.    6400.  
     1        12         3        11.    6400.  
     1        11         3        11.    6400.  
     1        11         3        11.    6400.  
     1        10         2        11.    6400.  
     1         9         2        11.    6400.  
     1         8         2        11.    6400.  
     1         7         2        11.    6400.  
     1         6         2        11.    6400.  
     1         5         2        11.    6400.  
     1         4         3        11.    6400.  
     1         4         3        11.    6400.  
end period
