BEGIN Options
  LIST       mv.lst
END Options

BEGIN Packages
  DISV6      mv.disv
  IC6        mv.ic
  NPF6       mv.npf
  OC6        mv.oc
  CHD6       mv.chd
  RCH6       mv.rch
  RIV6       mv.riv
END Packages

