BEGIN OPTIONS
  HEAD FILEOUT ps2.hed
  HEAD PRINT_FORMAT COLUMNS 20 WIDTH 8 DIGITS 3 FIXED
END OPTIONS

BEGIN PERIOD 1
  PRINT BUDGET ALL
  SAVE HEAD ALL
  PRINT HEAD ALL
END PERIOD
