BEGIN OPTIONS
  SAVE_FLOWS
END OPTIONS

BEGIN GRIDDATA
  ICELLTYPE LAYERED
    CONSTANT 1
    CONSTANT 0
    CONSTANT 0
  K LAYERED
    CONSTANT 50.
    OPEN/CLOSE k_layer_2.csv
    CONSTANT 200.
  K33 LAYERED
    CONSTANT 10.
     OPEN/CLOSE k33_layer_2.csv
    CONSTANT 20.
END GRIDDATA
