BEGIN DIMENSIONS
  NCELLS 1260
END DIMENSIONS

BEGIN GRIDDATA
  IZONE LAYERED
    OPEN/CLOSE  zones_1.dat
    OPEN/CLOSE  zones_2.dat
    OPEN/CLOSE  zones_3.dat
END GRIDDATA
