# File generated by Flopy version 3.3.7 on 01/04/2023 at 15:45:28.
BEGIN options
  BUDGET  FILEOUT  child.bud
  HEAD  FILEOUT  child.hds
  HEAD  PRINT_FORMAT  COLUMNS  10  WIDTH  15  DIGITS  6  GENERAL
END options

BEGIN period  1
  SAVE  HEAD  ALL
  SAVE  BUDGET  ALL
  PRINT  HEAD  ALL
  PRINT  BUDGET  ALL
END period  1

