# File generated by Flopy version 3.3.7 on 01/04/2023 at 15:45:27.
BEGIN options
  BUDGET  FILEOUT  mv.bud
  HEAD  FILEOUT  mv.hds
END options

BEGIN period  1
  SAVE  HEAD  ALL
  SAVE  BUDGET  ALL
END period  1

