# File generated by Flopy version 3.3.7 on 01/04/2023 at 15:45:28.
BEGIN options
  COMPLEXITY  complex
END options

