# File generated by Flopy version 3.3.7 on 01/04/2023 at 15:45:28.
BEGIN options
  SAVE_FLOWS
END options

BEGIN packages
  DIS6  mv.dis  dis
  IC6  mv.ic  ic
  NPF6  mv.npf  npf
  CHD6  mv.chd  chd_0
  RCH6  mv.rcha  rcha_0
  RIV6  mv.riv  riv_0
  OC6  mv.oc  oc
END packages

