# File generated by Flopy version 3.3.7 on 01/04/2023 at 15:45:28.
BEGIN options
  READASARRAYS
END options

BEGIN period  1
  recharge
    CONSTANT       0.00364100
END period  1

