# File generated by Flopy version 3.3.7 on 01/04/2023 at 15:45:28.
BEGIN options
END options

BEGIN dimensions
  NPER  1
END dimensions

BEGIN perioddata
       1.00000000  1       1.00000000
END perioddata

