                                   MODFLOW 6
                U.S. GEOLOGICAL SURVEY MODULAR HYDROLOGIC MODEL
                          GROUNDWATER FLOW MODEL (GWF)
                            VERSION 6.0.4 03/13/2019

   MODFLOW 6 compiled Mar 13 2019 12:37:09 with IFORT compiler (ver. 19.0.0)

This software has been approved for release by the U.S. Geological 
Survey (USGS). Although the software has been subjected to rigorous 
review, the USGS reserves the right to update the software as needed 
pursuant to further analysis and review. No warranty, expressed or 
implied, is made by the USGS or the U.S. Government as to the 
functionality of the software and related material nor shall the 
fact of release constitute any such warranty. Furthermore, the 
software is released on condition that neither the USGS nor the U.S. 
Government shall be held liable for any damages resulting from its 
authorized or unauthorized use. Also refer to the USGS Water 
Resources Software User Rights Notice for complete use, copyright, 
and distribution information.


MODFLOW was compiled using uniform precision.
Precision of REAL variables: 15


 OPENED ps1.dis
 FILE TYPE:DIS6                   UNIT 1005   STATUS:OLD                 
 FORMAT:FORMATTED              ACCESS:SEQUENTIAL          
 ACTION:READ                


 OPENED ps1.ic
 FILE TYPE:IC6                    UNIT 1006   STATUS:OLD                 
 FORMAT:FORMATTED              ACCESS:SEQUENTIAL          
 ACTION:READ                


 OPENED ps1.npf
 FILE TYPE:NPF6                   UNIT 1007   STATUS:OLD                 
 FORMAT:FORMATTED              ACCESS:SEQUENTIAL          
 ACTION:READ                


 OPENED ps1.oc
 FILE TYPE:OC6                    UNIT 1008   STATUS:OLD                 
 FORMAT:FORMATTED              ACCESS:SEQUENTIAL          
 ACTION:READ                


 OPENED ps1.chd
 FILE TYPE:CHD6                   UNIT 1009   STATUS:OLD                 
 FORMAT:FORMATTED              ACCESS:SEQUENTIAL          
 ACTION:READ                

 NAMEFILE OPTIONS:
    FLOWS WILL BE SAVED TO BUDGET FILE SPECIFIED IN OUTPUT CONTROL

 DIS -- STRUCTURED GRID DISCRETIZATION PACKAGE, VERSION 2 : 3/27/2014 - INPUT READ FROM UNIT 1005


 PROCESSING DISCRETIZATION OPTIONS
    MODEL LENGTH UNIT IS FEET
    XORIGIN SPECIFIED AS     0.00000000000000    
    YORIGIN SPECIFIED AS     0.00000000000000    
    ANGROT SPECIFIED AS     0.00000000000000    
 END OF DISCRETIZATION OPTIONS
 PROCESSING DISCRETIZATION DIMENSIONS
    NLAY =       3
    NROW =      21
    NCOL =      20
 END OF DISCRETIZATION DIMENSIONS
 PROCESSING GRIDDATA

                     DELR =   500.0000    

                     DELC =   500.0000    

 TOP ELEVATION OF LAYER 1 =   350.0000    

   MODEL LAYER BOTTOM EL. =   220.0000     FOR LAYER 1

   MODEL LAYER BOTTOM EL. =   200.0000     FOR LAYER 2

   MODEL LAYER BOTTOM EL. =   0.000000     FOR LAYER 3

                  IDOMAIN = 1 FOR LAYER 1

                  IDOMAIN = 1 FOR LAYER 2

                  IDOMAIN = 1 FOR LAYER 3
 END PROCESSING GRIDDATA

 NPF -- NODE PROPERTY FLOW PACKAGE, VERSION 1, 3/30/2015 INPUT READ FROM UNIT 1007


 PROCESSING NPF OPTIONS
    CELL-BY-CELL FLOW INFORMATION WILL BE SAVED TO BINARY FILE WHENEVER ICBCFL IS NOT ZERO.
 END OF NPF OPTIONS

 CHD   -- CHD PACKAGE, VERSION 8, 2/22/2014 INPUT READ FROM UNIT 1009

 PROCESSING CHD OPTIONS
    LISTS OF CHD CELLS WILL BE PRINTED.
    CHD FLOWS WILL BE PRINTED TO LISTING FILE.
    FLOWS WILL BE SAVED TO BUDGET FILE SPECIFIED IN OUTPUT CONTROL
 END OF CHD OPTIONS

 PROCESSING CHD DIMENSIONS
    MAXBOUND =      42
 END OF CHD DIMENSIONS

 IC -- INITIAL CONDITIONS PACKAGE, VERSION 8, 3/28/2015 INPUT READ FROM UNIT 1006
 PROCESSING IC OPTIONS
 END OF IC OPTIONS
 PROCESSING GRIDDATA

     INITIAL HEAD =   320.0000     FOR LAYER 1

     INITIAL HEAD =   320.0000     FOR LAYER 2

     INITIAL HEAD =   320.0000     FOR LAYER 3
 END PROCESSING GRIDDATA
 PROCESSING GRIDDATA

                ICELLTYPE = 1 FOR LAYER 1

                ICELLTYPE = 0 FOR LAYER 2

                ICELLTYPE = 0 FOR LAYER 3

                        K =   50.00000     FOR LAYER 1

                        K =  0.1000000E-01 FOR LAYER 2

                        K =   200.0000     FOR LAYER 3

                      K33 =   10.00000     FOR LAYER 1

                      K33 =  0.1000000E-01 FOR LAYER 2

                      K33 =   20.00000     FOR LAYER 3
 K22 not provided.  Assuming K22 = K.
 END PROCESSING GRIDDATA
    BINARY GRID INFORMATION WILL BE WRITTEN TO:
      UNIT NUMBER: 1011
      FILE NAME: C:\Users\rasheets\LT14\Regional_Specialist\TRAINING\FY20\MODFLOW\MODFLOW_SanDiego\Instructors\ps1\ps1a\ps1.dis.grb

 OPENED C:\Users\rasheets\LT14\Regional_Specialist\TRAINING\FY20\MODFLOW\MODFLOW_SanDiego\Instructors\ps1\ps1a\ps1.dis.grb
 FILE TYPE:DATA(BINARY)   UNIT 1011   STATUS:REPLACE             
 FORMAT:UNFORMATTED            ACCESS:STREAM              
 ACTION:READWRITE           

      THE LAST TIME STEP WILL BE PRINTED
      THE LAST TIME STEP WILL BE PRINTED
 PROCESSING OC OPTIONS
    HEAD INFORMATION WILL BE WRITTEN TO:
      UNIT NUMBER: 1012
      FILE NAME: ps1.hed

 OPENED ps1.hed
 FILE TYPE:DATA(BINARY)   UNIT 1012   STATUS:REPLACE             
 FORMAT:UNFORMATTED            ACCESS:STREAM              
 ACTION:READWRITE           

 END OF OC OPTIONS

 BEGIN READING OUTPUT CONTROL FOR STRESS PERIOD 1
      ALL TIME STEPS WILL BE SAVED
      ALL TIME STEPS WILL BE PRINTED

 END READING OUTPUT CONTROL FOR STRESS PERIOD 1
 # canal

 CHD NO.  LAYER    ROW    COL            HEAD         
 -----------------------------------------------------
      1      1      1      1       330.0    
      2      1      2      1       330.0    
      3      1      3      1       330.0    
      4      1      4      1       330.0    
      5      1      5      1       330.0    
      6      1      6      1       330.0    
      7      1      7      1       330.0    
      8      1      8      1       330.0    
      9      1      9      1       330.0    
     10      1     10      1       330.0    
     11      1     11      1       330.0    
     12      1     12      1       330.0    
     13      1     13      1       330.0    
     14      1     14      1       330.0    
     15      1     15      1       330.0    
     16      1     16      1       330.0    
     17      1     17      1       330.0    
     18      1     18      1       330.0    
     19      1     19      1       330.0    
     20      1     20      1       330.0    
     21      1     21      1       330.0    
     22      1      1     20       320.0    
     23      1      2     20       320.0    
     24      1      3     20       320.0    
     25      1      4     20       320.0    
     26      1      5     20       320.0    
     27      1      6     20       320.0    
     28      1      7     20       320.0    
     29      1      8     20       320.0    
     30      1      9     20       320.0    
     31      1     10     20       320.0    
     32      1     11     20       320.0    
     33      1     12     20       320.0    
     34      1     13     20       320.0    
     35      1     14     20       320.0    
     36      1     15     20       320.0    
     37      1     16     20       320.0    
     38      1     17     20       320.0    
     39      1     18     20       320.0    
     40      1     19     20       320.0    
     41      1     20     20       320.0    
     42      1     21     20       320.0    
1
  HEAD IN LAYER   1 AT END OF TIME STEP   1 IN STRESS PERIOD    1
  ---------------------------------------------------------------------------

            1        2        3        4        5        6        7        8        9       10       11       12       13       14       15       16       17       18       19       20
 .......................................................................................................................................................................................
   1   330.000  329.259  328.599  328.008  327.472  326.982  326.529  326.102  325.694  325.297  324.903  324.504  324.092  323.659  323.196  322.691  322.134  321.510  320.805  320.000
   2   330.000  329.259  328.599  328.008  327.472  326.982  326.529  326.102  325.694  325.297  324.903  324.504  324.092  323.659  323.196  322.691  322.134  321.510  320.805  320.000
   3   330.000  329.259  328.599  328.008  327.472  326.982  326.529  326.102  325.694  325.297  324.903  324.504  324.092  323.659  323.196  322.691  322.134  321.510  320.805  320.000
   4   330.000  329.259  328.599  328.008  327.472  326.982  326.529  326.102  325.694  325.297  324.903  324.504  324.092  323.659  323.196  322.691  322.134  321.510  320.805  320.000
   5   330.000  329.259  328.599  328.008  327.472  326.982  326.529  326.102  325.694  325.297  324.903  324.504  324.092  323.659  323.196  322.691  322.134  321.510  320.805  320.000
   6   330.000  329.259  328.599  328.008  327.472  326.982  326.529  326.102  325.694  325.297  324.903  324.504  324.092  323.659  323.196  322.691  322.134  321.510  320.805  320.000
   7   330.000  329.259  328.599  328.008  327.472  326.982  326.529  326.102  325.694  325.297  324.903  324.504  324.092  323.659  323.196  322.691  322.134  321.510  320.805  320.000
   8   330.000  329.259  328.599  328.008  327.472  326.982  326.529  326.102  325.694  325.297  324.903  324.504  324.092  323.659  323.196  322.691  322.134  321.510  320.805  320.000
   9   330.000  329.259  328.599  328.008  327.472  326.982  326.529  326.102  325.694  325.297  324.903  324.504  324.092  323.659  323.196  322.691  322.134  321.510  320.805  320.000
  10   330.000  329.259  328.599  328.008  327.472  326.982  326.529  326.102  325.694  325.297  324.903  324.504  324.092  323.659  323.196  322.691  322.134  321.510  320.805  320.000
  11   330.000  329.259  328.599  328.008  327.472  326.982  326.529  326.102  325.694  325.297  324.903  324.504  324.092  323.659  323.196  322.691  322.134  321.510  320.805  320.000
  12   330.000  329.259  328.599  328.008  327.472  326.982  326.529  326.102  325.694  325.297  324.903  324.504  324.092  323.659  323.196  322.691  322.134  321.510  320.805  320.000
  13   330.000  329.259  328.599  328.008  327.472  326.982  326.529  326.102  325.694  325.297  324.903  324.504  324.092  323.659  323.196  322.691  322.134  321.510  320.805  320.000
  14   330.000  329.259  328.599  328.008  327.472  326.982  326.529  326.102  325.694  325.297  324.903  324.504  324.092  323.659  323.196  322.691  322.134  321.510  320.805  320.000
  15   330.000  329.259  328.599  328.008  327.472  326.982  326.529  326.102  325.694  325.297  324.903  324.504  324.092  323.659  323.196  322.691  322.134  321.510  320.805  320.000
  16   330.000  329.259  328.599  328.008  327.472  326.982  326.529  326.102  325.694  325.297  324.903  324.504  324.092  323.659  323.196  322.691  322.134  321.510  320.805  320.000
  17   330.000  329.259  328.599  328.008  327.472  326.982  326.529  326.102  325.694  325.297  324.903  324.504  324.092  323.659  323.196  322.691  322.134  321.510  320.805  320.000
  18   330.000  329.259  328.599  328.008  327.472  326.982  326.529  326.102  325.694  325.297  324.903  324.504  324.092  323.659  323.196  322.691  322.134  321.510  320.805  320.000
  19   330.000  329.259  328.599  328.008  327.472  326.982  326.529  326.102  325.694  325.297  324.903  324.504  324.092  323.659  323.196  322.691  322.134  321.510  320.805  320.000
  20   330.000  329.259  328.599  328.008  327.472  326.982  326.529  326.102  325.694  325.297  324.903  324.504  324.092  323.659  323.196  322.691  322.134  321.510  320.805  320.000
  21   330.000  329.259  328.599  328.008  327.472  326.982  326.529  326.102  325.694  325.297  324.903  324.504  324.092  323.659  323.196  322.691  322.134  321.510  320.805  320.000
1
  HEAD IN LAYER   2 AT END OF TIME STEP   1 IN STRESS PERIOD    1
  ---------------------------------------------------------------------------

            1        2        3        4        5        6        7        8        9       10       11       12       13       14       15       16       17       18       19       20
 .......................................................................................................................................................................................
   1   327.754  327.377  327.034  326.721  326.432  326.162  325.908  325.665  325.431  325.201  324.972  324.741  324.504  324.258  323.999  323.722  323.421  323.092  322.726  322.317
   2   327.754  327.377  327.034  326.721  326.432  326.162  325.908  325.665  325.431  325.201  324.972  324.741  324.504  324.258  323.999  323.722  323.421  323.092  322.726  322.317
   3   327.754  327.377  327.034  326.721  326.432  326.162  325.908  325.665  325.431  325.201  324.972  324.741  324.504  324.258  323.999  323.722  323.421  323.092  322.726  322.317
   4   327.754  327.377  327.034  326.721  326.432  326.162  325.908  325.665  325.431  325.201  324.972  324.741  324.504  324.258  323.999  323.722  323.421  323.092  322.726  322.317
   5   327.754  327.377  327.034  326.721  326.432  326.162  325.908  325.665  325.431  325.201  324.972  324.741  324.504  324.258  323.999  323.722  323.421  323.092  322.726  322.317
   6   327.754  327.377  327.034  326.721  326.432  326.162  325.908  325.665  325.431  325.201  324.972  324.741  324.504  324.258  323.999  323.722  323.421  323.092  322.726  322.317
   7   327.754  327.377  327.034  326.721  326.432  326.162  325.908  325.665  325.431  325.201  324.972  324.741  324.504  324.258  323.999  323.722  323.421  323.092  322.726  322.317
   8   327.754  327.377  327.034  326.721  326.432  326.162  325.908  325.665  325.431  325.201  324.972  324.741  324.504  324.258  323.999  323.722  323.421  323.092  322.726  322.317
   9   327.754  327.377  327.034  326.721  326.432  326.162  325.908  325.665  325.431  325.201  324.972  324.741  324.504  324.258  323.999  323.722  323.421  323.092  322.726  322.317
  10   327.754  327.377  327.034  326.721  326.432  326.162  325.908  325.665  325.431  325.201  324.972  324.741  324.504  324.258  323.999  323.722  323.421  323.092  322.726  322.317
  11   327.754  327.377  327.034  326.721  326.432  326.162  325.908  325.665  325.431  325.201  324.972  324.741  324.504  324.258  323.999  323.722  323.421  323.092  322.726  322.317
  12   327.754  327.377  327.034  326.721  326.432  326.162  325.908  325.665  325.431  325.201  324.972  324.741  324.504  324.258  323.999  323.722  323.421  323.092  322.726  322.317
  13   327.754  327.377  327.034  326.721  326.432  326.162  325.908  325.665  325.431  325.201  324.972  324.741  324.504  324.258  323.999  323.722  323.421  323.092  322.726  322.317
  14   327.754  327.377  327.034  326.721  326.432  326.162  325.908  325.665  325.431  325.201  324.972  324.741  324.504  324.258  323.999  323.722  323.421  323.092  322.726  322.317
  15   327.754  327.377  327.034  326.721  326.432  326.162  325.908  325.665  325.431  325.201  324.972  324.741  324.504  324.258  323.999  323.722  323.421  323.092  322.726  322.317
  16   327.754  327.377  327.034  326.721  326.432  326.162  325.908  325.665  325.431  325.201  324.972  324.741  324.504  324.258  323.999  323.722  323.421  323.092  322.726  322.317
  17   327.754  327.377  327.034  326.721  326.432  326.162  325.908  325.665  325.431  325.201  324.972  324.741  324.504  324.258  323.999  323.722  323.421  323.092  322.726  322.317
  18   327.754  327.377  327.034  326.721  326.432  326.162  325.908  325.665  325.431  325.201  324.972  324.741  324.504  324.258  323.999  323.722  323.421  323.092  322.726  322.317
  19   327.754  327.377  327.034  326.721  326.432  326.162  325.908  325.665  325.431  325.201  324.972  324.741  324.504  324.258  323.999  323.722  323.421  323.092  322.726  322.317
  20   327.754  327.377  327.034  326.721  326.432  326.162  325.908  325.665  325.431  325.201  324.972  324.741  324.504  324.258  323.999  323.722  323.421  323.092  322.726  322.317
  21   327.754  327.377  327.034  326.721  326.432  326.162  325.908  325.665  325.431  325.201  324.972  324.741  324.504  324.258  323.999  323.722  323.421  323.092  322.726  322.317
1
  HEAD IN LAYER   3 AT END OF TIME STEP   1 IN STRESS PERIOD    1
  ---------------------------------------------------------------------------

            1        2        3        4        5        6        7        8        9       10       11       12       13       14       15       16       17       18       19       20
 .......................................................................................................................................................................................
   1   325.511  325.497  325.471  325.436  325.393  325.343  325.288  325.229  325.168  325.105  325.041  324.978  324.916  324.857  324.801  324.751  324.707  324.670  324.644  324.630
   2   325.511  325.497  325.471  325.436  325.393  325.343  325.288  325.229  325.168  325.105  325.041  324.978  324.916  324.857  324.801  324.751  324.707  324.670  324.644  324.630
   3   325.511  325.497  325.471  325.436  325.393  325.343  325.288  325.229  325.168  325.105  325.041  324.978  324.916  324.857  324.801  324.751  324.707  324.670  324.644  324.630
   4   325.511  325.497  325.471  325.436  325.393  325.343  325.288  325.229  325.168  325.105  325.041  324.978  324.916  324.857  324.801  324.751  324.707  324.670  324.644  324.630
   5   325.511  325.497  325.471  325.436  325.393  325.343  325.288  325.229  325.168  325.105  325.041  324.978  324.916  324.857  324.801  324.751  324.707  324.670  324.644  324.630
   6   325.511  325.497  325.471  325.436  325.393  325.343  325.288  325.229  325.168  325.105  325.041  324.978  324.916  324.857  324.801  324.751  324.707  324.670  324.644  324.630
   7   325.511  325.497  325.471  325.436  325.393  325.343  325.288  325.229  325.168  325.105  325.041  324.978  324.916  324.857  324.801  324.751  324.707  324.670  324.644  324.630
   8   325.511  325.497  325.471  325.436  325.393  325.343  325.288  325.229  325.168  325.105  325.041  324.978  324.916  324.857  324.801  324.751  324.707  324.670  324.644  324.630
   9   325.511  325.497  325.471  325.436  325.393  325.343  325.288  325.229  325.168  325.105  325.041  324.978  324.916  324.857  324.801  324.751  324.707  324.670  324.644  324.630
  10   325.511  325.497  325.471  325.436  325.393  325.343  325.288  325.229  325.168  325.105  325.041  324.978  324.916  324.857  324.801  324.751  324.707  324.670  324.644  324.630
  11   325.511  325.497  325.471  325.436  325.393  325.343  325.288  325.229  325.168  325.105  325.041  324.978  324.916  324.857  324.801  324.751  324.707  324.670  324.644  324.630
  12   325.511  325.497  325.471  325.436  325.393  325.343  325.288  325.229  325.168  325.105  325.041  324.978  324.916  324.857  324.801  324.751  324.707  324.670  324.644  324.630
  13   325.511  325.497  325.471  325.436  325.393  325.343  325.288  325.229  325.168  325.105  325.041  324.978  324.916  324.857  324.801  324.751  324.707  324.670  324.644  324.630
  14   325.511  325.497  325.471  325.436  325.393  325.343  325.288  325.229  325.168  325.105  325.041  324.978  324.916  324.857  324.801  324.751  324.707  324.670  324.644  324.630
  15   325.511  325.497  325.471  325.436  325.393  325.343  325.288  325.229  325.168  325.105  325.041  324.978  324.916  324.857  324.801  324.751  324.707  324.670  324.644  324.630
  16   325.511  325.497  325.471  325.436  325.393  325.343  325.288  325.229  325.168  325.105  325.041  324.978  324.916  324.857  324.801  324.751  324.707  324.670  324.644  324.630
  17   325.511  325.497  325.471  325.436  325.393  325.343  325.288  325.229  325.168  325.105  325.041  324.978  324.916  324.857  324.801  324.751  324.707  324.670  324.644  324.630
  18   325.511  325.497  325.471  325.436  325.393  325.343  325.288  325.229  325.168  325.105  325.041  324.978  324.916  324.857  324.801  324.751  324.707  324.670  324.644  324.630
  19   325.511  325.497  325.471  325.436  325.393  325.343  325.288  325.229  325.168  325.105  325.041  324.978  324.916  324.857  324.801  324.751  324.707  324.670  324.644  324.630
  20   325.511  325.497  325.471  325.436  325.393  325.343  325.288  325.229  325.168  325.105  325.041  324.978  324.916  324.857  324.801  324.751  324.707  324.670  324.644  324.630
  21   325.511  325.497  325.471  325.436  325.393  325.343  325.288  325.229  325.168  325.105  325.041  324.978  324.916  324.857  324.801  324.751  324.707  324.670  324.644  324.630

 HEAD WILL BE SAVED ON UNIT 1012 AT END OF TIME STEP    1, STRESS PERIOD    1


  VOLUME BUDGET FOR ENTIRE MODEL AT END OF TIME STEP    1, STRESS PERIOD   1
  ---------------------------------------------------------------------------------------------------

     CUMULATIVE VOLUME      L**3       RATES FOR THIS TIME STEP      L**3/T          PACKAGE NAME    
     ------------------                 ------------------------                     ----------------

           IN:                                      IN:
           ---                                      ---
                 CHD =       96991.5742                   CHD =       96991.5742     CHD-1           

            TOTAL IN =       96991.5742              TOTAL IN =       96991.5742

          OUT:                                     OUT:
          ----                                     ----
                 CHD =       96987.6548                   CHD =       96987.6548     CHD-1           

           TOTAL OUT =       96987.6548             TOTAL OUT =       96987.6548

            IN - OUT =           3.9193              IN - OUT =           3.9193

 PERCENT DISCREPANCY =           0.00     PERCENT DISCREPANCY =           0.00




         TIME SUMMARY AT END OF TIME STEP    1 IN STRESS PERIOD    1
                    SECONDS     MINUTES      HOURS       DAYS        YEARS
                    -----------------------------------------------------------
   TIME STEP LENGTH  86400.      1440.0      24.000      1.0000     2.73785E-03
 STRESS PERIOD TIME  86400.      1440.0      24.000      1.0000     2.73785E-03
         TOTAL TIME  86400.      1440.0      24.000      1.0000     2.73785E-03
