BEGIN OPTIONS
	BUDGET FILEOUT ps1.cbb
	HEAD FILEOUT ps1.hed
	HEAD PRINT_FORMAT COLUMNS 20 WIDTH 8 DIGITS 3 FIXED
  
END OPTIONS

BEGIN PERIOD 1
  SAVE HEAD ALL
  PRINT HEAD ALL
  SAVE BUDGET ALL
END PERIOD
